<?xml version="1.0" encoding="UTF-8"?>

<!-- generated on 2022-03-03 16:20:51 by Eclipse SUMO netedit Version 1.10.0
<configuration xmlns:xsi="http://www.w3.org/2001/XMLSchema-instance" xsi:noNamespaceSchemaLocation="http://sumo.dlr.de/xsd/netconvertConfiguration.xsd">

    <input>
        <sumo-net-file value="D:\GoogleDrive\Uni\Master\7.Semester\Masters%20Thesis\smart-traffic-system\src\TLCS\intersection\environment_tripple.net.xml"/>
    </input>

    <output>
        <output-file value="D:\GoogleDrive\Uni\Master\7.Semester\Masters%20Thesis\smart-traffic-system\src\TLCS\intersection\environment_tripple.net.xml"/>
    </output>

    <processing>
        <geometry.min-radius.fix.railways value="false"/>
        <geometry.max-grade.fix value="false"/>
        <offset.disable-normalization value="true"/>
        <lefthand value="false"/>
    </processing>

    <junctions>
        <no-turnarounds value="true"/>
        <junctions.corner-detail value="5"/>
        <junctions.limit-turn-speed value="5.5"/>
        <rectangular-lane-cut value="false"/>
    </junctions>

    <pedestrian>
        <walkingareas value="false"/>
    </pedestrian>

    <report>
        <aggregate-warnings value="5"/>
    </report>

</configuration>
-->

<net version="1.9" junctionCornerDetail="5" limitTurnSpeed="5.50" xmlns:xsi="http://www.w3.org/2001/XMLSchema-instance" xsi:noNamespaceSchemaLocation="http://sumo.dlr.de/xsd/net_file.xsd">

    <location netOffset="0.00,0.00" convBoundary="-1000.00,-700.00,1800.00,700.00" origBoundary="-10000000000.00,-10000000000.00,10000000000.00,10000000000.00" projParameter="!"/>

    <edge id=":TLC_0" function="internal">
        <lane id=":TLC_0_0" index="0" speed="6.51" length="9.03" shape="392.00,13.60 391.65,11.15 390.60,9.40 388.85,8.35 386.40,8.00"/>
    </edge>
    <edge id=":TLC_1" function="internal">
        <lane id=":TLC_1_0" index="0" speed="13.89" length="27.20" shape="392.00,13.60 392.00,-13.60"/>
        <lane id=":TLC_1_1" index="1" speed="13.89" length="27.20" shape="395.20,13.60 395.20,-13.60"/>
    </edge>
    <edge id=":TLC_3" function="internal">
        <lane id=":TLC_3_0" index="0" speed="10.36" length="13.42" shape="398.40,13.60 399.35,6.95 402.20,2.20 403.20,1.60"/>
    </edge>
    <edge id=":TLC_16" function="internal">
        <lane id=":TLC_16_0" index="0" speed="10.36" length="11.09" shape="403.20,1.60 406.95,-0.65 413.60,-1.60"/>
    </edge>
    <edge id=":TLC_4" function="internal">
        <lane id=":TLC_4_0" index="0" speed="6.51" length="9.03" shape="413.60,8.00 411.15,8.35 409.40,9.40 408.35,11.15 408.00,13.60"/>
    </edge>
    <edge id=":TLC_5" function="internal">
        <lane id=":TLC_5_0" index="0" speed="13.89" length="27.20" shape="413.60,8.00 386.40,8.00"/>
        <lane id=":TLC_5_1" index="1" speed="13.89" length="27.20" shape="413.60,4.80 386.40,4.80"/>
    </edge>
    <edge id=":TLC_7" function="internal">
        <lane id=":TLC_7_0" index="0" speed="10.36" length="13.42" shape="413.60,1.60 406.95,0.65 402.20,-2.20 401.60,-3.20"/>
    </edge>
    <edge id=":TLC_17" function="internal">
        <lane id=":TLC_17_0" index="0" speed="10.36" length="11.09" shape="401.60,-3.20 399.35,-6.95 398.40,-13.60"/>
    </edge>
    <edge id=":TLC_8" function="internal">
        <lane id=":TLC_8_0" index="0" speed="6.51" length="9.03" shape="408.00,-13.60 408.35,-11.15 409.40,-9.40 411.15,-8.35 413.60,-8.00"/>
    </edge>
    <edge id=":TLC_9" function="internal">
        <lane id=":TLC_9_0" index="0" speed="13.89" length="27.20" shape="408.00,-13.60 408.00,13.60"/>
        <lane id=":TLC_9_1" index="1" speed="13.89" length="27.20" shape="404.80,-13.60 404.80,13.60"/>
    </edge>
    <edge id=":TLC_11" function="internal">
        <lane id=":TLC_11_0" index="0" speed="10.36" length="13.42" shape="401.60,-13.60 400.65,-6.95 397.80,-2.20 396.80,-1.60"/>
    </edge>
    <edge id=":TLC_18" function="internal">
        <lane id=":TLC_18_0" index="0" speed="10.36" length="11.09" shape="396.80,-1.60 393.05,0.65 386.40,1.60"/>
    </edge>
    <edge id=":TLC_12" function="internal">
        <lane id=":TLC_12_0" index="0" speed="6.51" length="9.03" shape="386.40,-8.00 388.85,-8.35 390.60,-9.40 391.65,-11.15 392.00,-13.60"/>
    </edge>
    <edge id=":TLC_13" function="internal">
        <lane id=":TLC_13_0" index="0" speed="13.89" length="27.20" shape="386.40,-8.00 413.60,-8.00"/>
        <lane id=":TLC_13_1" index="1" speed="13.89" length="27.20" shape="386.40,-4.80 413.60,-4.80"/>
    </edge>
    <edge id=":TLC_15" function="internal">
        <lane id=":TLC_15_0" index="0" speed="10.36" length="13.42" shape="386.40,-1.60 393.05,-0.65 397.80,2.20 398.40,3.20"/>
    </edge>
    <edge id=":TLC_19" function="internal">
        <lane id=":TLC_19_0" index="0" speed="10.36" length="11.09" shape="398.40,3.20 400.65,6.95 401.60,13.60"/>
    </edge>
    <edge id=":TLE_0" function="internal">
        <lane id=":TLE_0_0" index="0" speed="6.51" length="9.03" shape="1092.00,13.60 1091.65,11.15 1090.60,9.40 1088.85,8.35 1086.40,8.00"/>
    </edge>
    <edge id=":TLE_1" function="internal">
        <lane id=":TLE_1_0" index="0" speed="13.89" length="27.20" shape="1092.00,13.60 1092.00,-13.60"/>
        <lane id=":TLE_1_1" index="1" speed="13.89" length="27.20" shape="1095.20,13.60 1095.20,-13.60"/>
    </edge>
    <edge id=":TLE_3" function="internal">
        <lane id=":TLE_3_0" index="0" speed="10.36" length="13.42" shape="1098.40,13.60 1099.35,6.95 1102.20,2.20 1103.20,1.60"/>
    </edge>
    <edge id=":TLE_16" function="internal">
        <lane id=":TLE_16_0" index="0" speed="10.36" length="11.09" shape="1103.20,1.60 1106.95,-0.65 1113.60,-1.60"/>
    </edge>
    <edge id=":TLE_4" function="internal">
        <lane id=":TLE_4_0" index="0" speed="6.51" length="9.03" shape="1113.60,8.00 1111.15,8.35 1109.40,9.40 1108.35,11.15 1108.00,13.60"/>
    </edge>
    <edge id=":TLE_5" function="internal">
        <lane id=":TLE_5_0" index="0" speed="13.89" length="27.20" shape="1113.60,8.00 1086.40,8.00"/>
        <lane id=":TLE_5_1" index="1" speed="13.89" length="27.20" shape="1113.60,4.80 1086.40,4.80"/>
    </edge>
    <edge id=":TLE_7" function="internal">
        <lane id=":TLE_7_0" index="0" speed="10.36" length="13.42" shape="1113.60,1.60 1106.95,0.65 1102.20,-2.20 1101.60,-3.20"/>
    </edge>
    <edge id=":TLE_17" function="internal">
        <lane id=":TLE_17_0" index="0" speed="10.36" length="11.09" shape="1101.60,-3.20 1099.35,-6.95 1098.40,-13.60"/>
    </edge>
    <edge id=":TLE_8" function="internal">
        <lane id=":TLE_8_0" index="0" speed="6.51" length="9.03" shape="1108.00,-13.60 1108.35,-11.15 1109.40,-9.40 1111.15,-8.35 1113.60,-8.00"/>
    </edge>
    <edge id=":TLE_9" function="internal">
        <lane id=":TLE_9_0" index="0" speed="13.89" length="27.20" shape="1108.00,-13.60 1108.00,13.60"/>
        <lane id=":TLE_9_1" index="1" speed="13.89" length="27.20" shape="1104.80,-13.60 1104.80,13.60"/>
    </edge>
    <edge id=":TLE_11" function="internal">
        <lane id=":TLE_11_0" index="0" speed="10.36" length="13.42" shape="1101.60,-13.60 1100.65,-6.95 1097.80,-2.20 1096.80,-1.60"/>
    </edge>
    <edge id=":TLE_18" function="internal">
        <lane id=":TLE_18_0" index="0" speed="10.36" length="11.09" shape="1096.80,-1.60 1093.05,0.65 1086.40,1.60"/>
    </edge>
    <edge id=":TLE_12" function="internal">
        <lane id=":TLE_12_0" index="0" speed="6.51" length="9.03" shape="1086.40,-8.00 1088.85,-8.35 1090.60,-9.40 1091.65,-11.15 1092.00,-13.60"/>
    </edge>
    <edge id=":TLE_13" function="internal">
        <lane id=":TLE_13_0" index="0" speed="13.89" length="27.20" shape="1086.40,-8.00 1113.60,-8.00"/>
        <lane id=":TLE_13_1" index="1" speed="13.89" length="27.20" shape="1086.40,-4.80 1113.60,-4.80"/>
    </edge>
    <edge id=":TLE_15" function="internal">
        <lane id=":TLE_15_0" index="0" speed="10.36" length="13.42" shape="1086.40,-1.60 1093.05,-0.65 1097.80,2.20 1098.40,3.20"/>
    </edge>
    <edge id=":TLE_19" function="internal">
        <lane id=":TLE_19_0" index="0" speed="10.36" length="11.09" shape="1098.40,3.20 1100.65,6.95 1101.60,13.60"/>
    </edge>
    <edge id=":TLW_0" function="internal">
        <lane id=":TLW_0_0" index="0" speed="6.51" length="9.03" shape="-308.00,13.60 -308.35,11.15 -309.40,9.40 -311.15,8.35 -313.60,8.00"/>
    </edge>
    <edge id=":TLW_1" function="internal">
        <lane id=":TLW_1_0" index="0" speed="13.89" length="27.20" shape="-308.00,13.60 -308.00,-13.60"/>
        <lane id=":TLW_1_1" index="1" speed="13.89" length="27.20" shape="-304.80,13.60 -304.80,-13.60"/>
    </edge>
    <edge id=":TLW_3" function="internal">
        <lane id=":TLW_3_0" index="0" speed="10.36" length="13.42" shape="-301.60,13.60 -300.65,6.95 -297.80,2.20 -296.80,1.60"/>
    </edge>
    <edge id=":TLW_16" function="internal">
        <lane id=":TLW_16_0" index="0" speed="10.36" length="11.09" shape="-296.80,1.60 -293.05,-0.65 -286.40,-1.60"/>
    </edge>
    <edge id=":TLW_4" function="internal">
        <lane id=":TLW_4_0" index="0" speed="6.51" length="9.03" shape="-286.40,8.00 -288.85,8.35 -290.60,9.40 -291.65,11.15 -292.00,13.60"/>
    </edge>
    <edge id=":TLW_5" function="internal">
        <lane id=":TLW_5_0" index="0" speed="13.89" length="27.20" shape="-286.40,8.00 -313.60,8.00"/>
        <lane id=":TLW_5_1" index="1" speed="13.89" length="27.20" shape="-286.40,4.80 -313.60,4.80"/>
    </edge>
    <edge id=":TLW_7" function="internal">
        <lane id=":TLW_7_0" index="0" speed="10.36" length="13.42" shape="-286.40,1.60 -293.05,0.65 -297.80,-2.20 -298.40,-3.20"/>
    </edge>
    <edge id=":TLW_17" function="internal">
        <lane id=":TLW_17_0" index="0" speed="10.36" length="11.09" shape="-298.40,-3.20 -300.65,-6.95 -301.60,-13.60"/>
    </edge>
    <edge id=":TLW_8" function="internal">
        <lane id=":TLW_8_0" index="0" speed="6.51" length="9.03" shape="-292.00,-13.60 -291.65,-11.15 -290.60,-9.40 -288.85,-8.35 -286.40,-8.00"/>
    </edge>
    <edge id=":TLW_9" function="internal">
        <lane id=":TLW_9_0" index="0" speed="13.89" length="27.20" shape="-292.00,-13.60 -292.00,13.60"/>
        <lane id=":TLW_9_1" index="1" speed="13.89" length="27.20" shape="-295.20,-13.60 -295.20,13.60"/>
    </edge>
    <edge id=":TLW_11" function="internal">
        <lane id=":TLW_11_0" index="0" speed="10.36" length="13.42" shape="-298.40,-13.60 -299.35,-6.95 -302.20,-2.20 -303.20,-1.60"/>
    </edge>
    <edge id=":TLW_18" function="internal">
        <lane id=":TLW_18_0" index="0" speed="10.36" length="11.09" shape="-303.20,-1.60 -306.95,0.65 -313.60,1.60"/>
    </edge>
    <edge id=":TLW_12" function="internal">
        <lane id=":TLW_12_0" index="0" speed="6.51" length="9.03" shape="-313.60,-8.00 -311.15,-8.35 -309.40,-9.40 -308.35,-11.15 -308.00,-13.60"/>
    </edge>
    <edge id=":TLW_13" function="internal">
        <lane id=":TLW_13_0" index="0" speed="13.89" length="27.20" shape="-313.60,-8.00 -286.40,-8.00"/>
        <lane id=":TLW_13_1" index="1" speed="13.89" length="27.20" shape="-313.60,-4.80 -286.40,-4.80"/>
    </edge>
    <edge id=":TLW_15" function="internal">
        <lane id=":TLW_15_0" index="0" speed="10.36" length="13.42" shape="-313.60,-1.60 -306.95,-0.65 -302.20,2.20 -301.60,3.20"/>
    </edge>
    <edge id=":TLW_19" function="internal">
        <lane id=":TLW_19_0" index="0" speed="10.36" length="11.09" shape="-301.60,3.20 -299.35,6.95 -298.40,13.60"/>
    </edge>

    <edge id="E2TLE" from="gneJ10" to="TLE" priority="-1">
        <lane id="E2TLE_0" index="0" speed="13.89" length="686.40" shape="1800.00,8.00 1113.60,8.00"/>
        <lane id="E2TLE_1" index="1" speed="13.89" length="686.40" shape="1800.00,4.80 1113.60,4.80"/>
        <lane id="E2TLE_2" index="2" speed="13.89" length="686.40" shape="1800.00,1.60 1113.60,1.60"/>
    </edge>
    <edge id="N2TLC" from="gneJ8" to="TLC" priority="-1">
        <lane id="N2TLC_0" index="0" speed="13.89" length="686.40" shape="392.00,700.00 392.00,13.60"/>
        <lane id="N2TLC_1" index="1" speed="13.89" length="686.40" shape="395.20,700.00 395.20,13.60"/>
        <lane id="N2TLC_2" index="2" speed="13.89" length="686.40" shape="398.40,700.00 398.40,13.60"/>
    </edge>
    <edge id="N2TLE" from="gneJ11" to="TLE" priority="-1">
        <lane id="N2TLE_0" index="0" speed="13.89" length="686.40" shape="1092.00,700.00 1092.00,13.60"/>
        <lane id="N2TLE_1" index="1" speed="13.89" length="686.40" shape="1095.20,700.00 1095.20,13.60"/>
        <lane id="N2TLE_2" index="2" speed="13.89" length="686.40" shape="1098.40,700.00 1098.40,13.60"/>
    </edge>
    <edge id="N2TLW" from="gneJ15" to="TLW" priority="-1">
        <lane id="N2TLW_0" index="0" speed="13.89" length="686.40" shape="-308.00,700.00 -308.00,13.60"/>
        <lane id="N2TLW_1" index="1" speed="13.89" length="686.40" shape="-304.80,700.00 -304.80,13.60"/>
        <lane id="N2TLW_2" index="2" speed="13.89" length="686.40" shape="-301.60,700.00 -301.60,13.60"/>
    </edge>
    <edge id="S2TLC" from="gneJ6" to="TLC" priority="-1">
        <lane id="S2TLC_0" index="0" speed="13.89" length="686.40" shape="408.00,-700.00 408.00,-13.60"/>
        <lane id="S2TLC_1" index="1" speed="13.89" length="686.40" shape="404.80,-700.00 404.80,-13.60"/>
        <lane id="S2TLC_2" index="2" speed="13.89" length="686.40" shape="401.60,-700.00 401.60,-13.60"/>
    </edge>
    <edge id="S2TLE" from="gneJ12" to="TLE" priority="-1">
        <lane id="S2TLE_0" index="0" speed="13.89" length="686.40" shape="1108.00,-700.00 1108.00,-13.60"/>
        <lane id="S2TLE_1" index="1" speed="13.89" length="686.40" shape="1104.80,-700.00 1104.80,-13.60"/>
        <lane id="S2TLE_2" index="2" speed="13.89" length="686.40" shape="1101.60,-700.00 1101.60,-13.60"/>
    </edge>
    <edge id="S2TLW" from="gneJ16" to="TLW" priority="-1">
        <lane id="S2TLW_0" index="0" speed="13.89" length="686.40" shape="-292.00,-700.00 -292.00,-13.60"/>
        <lane id="S2TLW_1" index="1" speed="13.89" length="686.40" shape="-295.20,-700.00 -295.20,-13.60"/>
        <lane id="S2TLW_2" index="2" speed="13.89" length="686.40" shape="-298.40,-700.00 -298.40,-13.60"/>
    </edge>
    <edge id="TLC2N" from="TLC" to="gneJ8" priority="-1">
        <lane id="TLC2N_0" index="0" speed="13.89" length="686.40" shape="408.00,13.60 408.00,700.00"/>
        <lane id="TLC2N_1" index="1" speed="13.89" length="686.40" shape="404.80,13.60 404.80,700.00"/>
        <lane id="TLC2N_2" index="2" speed="13.89" length="686.40" shape="401.60,13.60 401.60,700.00"/>
    </edge>
    <edge id="TLC2S" from="TLC" to="gneJ6" priority="-1">
        <lane id="TLC2S_0" index="0" speed="13.89" length="686.40" shape="392.00,-13.60 392.00,-700.00"/>
        <lane id="TLC2S_1" index="1" speed="13.89" length="686.40" shape="395.20,-13.60 395.20,-700.00"/>
        <lane id="TLC2S_2" index="2" speed="13.89" length="686.40" shape="398.40,-13.60 398.40,-700.00"/>
    </edge>
    <edge id="TLC2TLE" from="TLC" to="TLE" priority="-1">
        <lane id="TLC2TLE_0" index="0" speed="13.89" length="672.80" shape="413.60,-8.00 1086.40,-8.00"/>
        <lane id="TLC2TLE_1" index="1" speed="13.89" length="672.80" shape="413.60,-4.80 1086.40,-4.80"/>
        <lane id="TLC2TLE_2" index="2" speed="13.89" length="672.80" shape="413.60,-1.60 1086.40,-1.60"/>
    </edge>
    <edge id="TLC2TLW" from="TLC" to="TLW" priority="-1">
        <lane id="TLC2TLW_0" index="0" speed="13.89" length="672.80" shape="386.40,8.00 -286.40,8.00"/>
        <lane id="TLC2TLW_1" index="1" speed="13.89" length="672.80" shape="386.40,4.80 -286.40,4.80"/>
        <lane id="TLC2TLW_2" index="2" speed="13.89" length="672.80" shape="386.40,1.60 -286.40,1.60"/>
    </edge>
    <edge id="TLE2E" from="TLE" to="gneJ10" priority="-1">
        <lane id="TLE2E_0" index="0" speed="13.89" length="686.40" shape="1113.60,-8.00 1800.00,-8.00"/>
        <lane id="TLE2E_1" index="1" speed="13.89" length="686.40" shape="1113.60,-4.80 1800.00,-4.80"/>
        <lane id="TLE2E_2" index="2" speed="13.89" length="686.40" shape="1113.60,-1.60 1800.00,-1.60"/>
    </edge>
    <edge id="TLE2N" from="TLE" to="gneJ11" priority="-1">
        <lane id="TLE2N_0" index="0" speed="13.89" length="686.40" shape="1108.00,13.60 1108.00,700.00"/>
        <lane id="TLE2N_1" index="1" speed="13.89" length="686.40" shape="1104.80,13.60 1104.80,700.00"/>
        <lane id="TLE2N_2" index="2" speed="13.89" length="686.40" shape="1101.60,13.60 1101.60,700.00"/>
    </edge>
    <edge id="TLE2S" from="TLE" to="gneJ12" priority="-1">
        <lane id="TLE2S_0" index="0" speed="13.89" length="686.40" shape="1092.00,-13.60 1092.00,-700.00"/>
        <lane id="TLE2S_1" index="1" speed="13.89" length="686.40" shape="1095.20,-13.60 1095.20,-700.00"/>
        <lane id="TLE2S_2" index="2" speed="13.89" length="686.40" shape="1098.40,-13.60 1098.40,-700.00"/>
    </edge>
    <edge id="TLE2TLC" from="TLE" to="TLC" priority="-1">
        <lane id="TLE2TLC_0" index="0" speed="13.89" length="672.80" shape="1086.40,8.00 413.60,8.00"/>
        <lane id="TLE2TLC_1" index="1" speed="13.89" length="672.80" shape="1086.40,4.80 413.60,4.80"/>
        <lane id="TLE2TLC_2" index="2" speed="13.89" length="672.80" shape="1086.40,1.60 413.60,1.60"/>
    </edge>
    <edge id="TLW2N" from="TLW" to="gneJ15" priority="-1">
        <lane id="TLW2N_0" index="0" speed="13.89" length="686.40" shape="-292.00,13.60 -292.00,700.00"/>
        <lane id="TLW2N_1" index="1" speed="13.89" length="686.40" shape="-295.20,13.60 -295.20,700.00"/>
        <lane id="TLW2N_2" index="2" speed="13.89" length="686.40" shape="-298.40,13.60 -298.40,700.00"/>
    </edge>
    <edge id="TLW2S" from="TLW" to="gneJ16" priority="-1">
        <lane id="TLW2S_0" index="0" speed="13.89" length="686.40" shape="-308.00,-13.60 -308.00,-700.00"/>
        <lane id="TLW2S_1" index="1" speed="13.89" length="686.40" shape="-304.80,-13.60 -304.80,-700.00"/>
        <lane id="TLW2S_2" index="2" speed="13.89" length="686.40" shape="-301.60,-13.60 -301.60,-700.00"/>
    </edge>
    <edge id="TLW2TLC" from="TLW" to="TLC" priority="-1">
        <lane id="TLW2TLC_0" index="0" speed="13.89" length="672.80" shape="-286.40,-8.00 386.40,-8.00"/>
        <lane id="TLW2TLC_1" index="1" speed="13.89" length="672.80" shape="-286.40,-4.80 386.40,-4.80"/>
        <lane id="TLW2TLC_2" index="2" speed="13.89" length="672.80" shape="-286.40,-1.60 386.40,-1.60"/>
    </edge>
    <edge id="TLW2W" from="TLW" to="gneJ14" priority="-1">
        <lane id="TLW2W_0" index="0" speed="13.89" length="686.40" shape="-313.60,8.00 -1000.00,8.00"/>
        <lane id="TLW2W_1" index="1" speed="13.89" length="686.40" shape="-313.60,4.80 -1000.00,4.80"/>
        <lane id="TLW2W_2" index="2" speed="13.89" length="686.40" shape="-313.60,1.60 -1000.00,1.60"/>
    </edge>
    <edge id="W2TLW" from="gneJ14" to="TLW" priority="-1">
        <lane id="W2TLW_0" index="0" speed="13.89" length="686.40" shape="-1000.00,-8.00 -313.60,-8.00"/>
        <lane id="W2TLW_1" index="1" speed="13.89" length="686.40" shape="-1000.00,-4.80 -313.60,-4.80"/>
        <lane id="W2TLW_2" index="2" speed="13.89" length="686.40" shape="-1000.00,-1.60 -313.60,-1.60"/>
    </edge>

    <tlLogic id="TLC" type="static" programID="0" offset="0">
        <phase duration="33" state="GGGgrrrrGGGgrrrr"/>
        <phase duration="3"  state="yyygrrrryyygrrrr"/>
        <phase duration="6"  state="rrrGrrrrrrrGrrrr"/>
        <phase duration="3"  state="rrryrrrrrrryrrrr"/>
        <phase duration="33" state="rrrrGGGgrrrrGGGg"/>
        <phase duration="3"  state="rrrryyygrrrryyyg"/>
        <phase duration="6"  state="rrrrrrrGrrrrrrrG"/>
        <phase duration="3"  state="rrrrrrryrrrrrrry"/>
    </tlLogic>
    <tlLogic id="TLE" type="static" programID="0" offset="0">
        <phase duration="33" state="GGGgrrrrGGGgrrrr"/>
        <phase duration="3"  state="yyygrrrryyygrrrr"/>
        <phase duration="6"  state="rrrGrrrrrrrGrrrr"/>
        <phase duration="3"  state="rrryrrrrrrryrrrr"/>
        <phase duration="33" state="rrrrGGGgrrrrGGGg"/>
        <phase duration="3"  state="rrrryyygrrrryyyg"/>
        <phase duration="6"  state="rrrrrrrGrrrrrrrG"/>
        <phase duration="3"  state="rrrrrrryrrrrrrry"/>
    </tlLogic>
    <tlLogic id="TLW" type="static" programID="0" offset="0">
        <phase duration="33" state="GGGgrrrrGGGgrrrr"/>
        <phase duration="3"  state="yyygrrrryyygrrrr"/>
        <phase duration="6"  state="rrrGrrrrrrrGrrrr"/>
        <phase duration="3"  state="rrryrrrrrrryrrrr"/>
        <phase duration="33" state="rrrrGGGgrrrrGGGg"/>
        <phase duration="3"  state="rrrryyygrrrryyyg"/>
        <phase duration="6"  state="rrrrrrrGrrrrrrrG"/>
        <phase duration="3"  state="rrrrrrryrrrrrrry"/>
    </tlLogic>

    <junction id="TLC" type="traffic_light" x="400.00" y="0.00" incLanes="N2TLC_0 N2TLC_1 N2TLC_2 TLE2TLC_0 TLE2TLC_1 TLE2TLC_2 S2TLC_0 S2TLC_1 S2TLC_2 TLW2TLC_0 TLW2TLC_1 TLW2TLC_2" intLanes=":TLC_0_0 :TLC_1_0 :TLC_1_1 :TLC_16_0 :TLC_4_0 :TLC_5_0 :TLC_5_1 :TLC_17_0 :TLC_8_0 :TLC_9_0 :TLC_9_1 :TLC_18_0 :TLC_12_0 :TLC_13_0 :TLC_13_1 :TLC_19_0" shape="390.40,13.60 409.60,13.60 410.04,11.38 410.60,10.60 411.38,10.04 412.38,9.71 413.60,9.60 413.60,-9.60 411.38,-10.04 410.60,-10.60 410.04,-11.38 409.71,-12.38 409.60,-13.60 390.40,-13.60 389.96,-11.38 389.40,-10.60 388.62,-10.04 387.62,-9.71 386.40,-9.60 386.40,9.60 388.62,10.04 389.40,10.60 389.96,11.38 390.29,12.38">
        <request index="0"  response="0000000000000000" foes="0000000001100000" cont="0"/>
        <request index="1"  response="1000000000000000" foes="1111100001100000" cont="0"/>
        <request index="2"  response="1000000000000000" foes="1111100001100000" cont="0"/>
        <request index="3"  response="1000011010000000" foes="1000011011100000" cont="1"/>
        <request index="4"  response="0000011000000000" foes="0000011000000000" cont="0"/>
        <request index="5"  response="0000011000001111" foes="1000011000001111" cont="0"/>
        <request index="6"  response="0000011000001111" foes="1000011000001111" cont="0"/>
        <request index="7"  response="0110111000001000" foes="0110111000001000" cont="1"/>
        <request index="8"  response="0000000000000000" foes="0110000000000000" cont="0"/>
        <request index="9"  response="0000000010000000" foes="0110000011111000" cont="0"/>
        <request index="10" response="0000000010000000" foes="0110000011111000" cont="0"/>
        <request index="11" response="1000000010000110" foes="1110000010000110" cont="1"/>
        <request index="12" response="0000000000000110" foes="0000000000000110" cont="0"/>
        <request index="13" response="0000111100000110" foes="0000111110000110" cont="0"/>
        <request index="14" response="0000111100000110" foes="0000111110000110" cont="0"/>
        <request index="15" response="0000100001101110" foes="0000100001101110" cont="1"/>
    </junction>
    <junction id="TLE" type="traffic_light" x="1100.00" y="0.00" incLanes="N2TLE_0 N2TLE_1 N2TLE_2 E2TLE_0 E2TLE_1 E2TLE_2 S2TLE_0 S2TLE_1 S2TLE_2 TLC2TLE_0 TLC2TLE_1 TLC2TLE_2" intLanes=":TLE_0_0 :TLE_1_0 :TLE_1_1 :TLE_16_0 :TLE_4_0 :TLE_5_0 :TLE_5_1 :TLE_17_0 :TLE_8_0 :TLE_9_0 :TLE_9_1 :TLE_18_0 :TLE_12_0 :TLE_13_0 :TLE_13_1 :TLE_19_0" shape="1090.40,13.60 1109.60,13.60 1110.04,11.38 1110.60,10.60 1111.38,10.04 1112.38,9.71 1113.60,9.60 1113.60,-9.60 1111.38,-10.04 1110.60,-10.60 1110.04,-11.38 1109.71,-12.38 1109.60,-13.60 1090.40,-13.60 1089.96,-11.38 1089.40,-10.60 1088.62,-10.04 1087.62,-9.71 1086.40,-9.60 1086.40,9.60 1088.62,10.04 1089.40,10.60 1089.96,11.38 1090.29,12.38">
        <request index="0"  response="0000000000000000" foes="0000000001100000" cont="0"/>
        <request index="1"  response="1000000000000000" foes="1111100001100000" cont="0"/>
        <request index="2"  response="1000000000000000" foes="1111100001100000" cont="0"/>
        <request index="3"  response="1000011010000000" foes="1000011011100000" cont="1"/>
        <request index="4"  response="0000011000000000" foes="0000011000000000" cont="0"/>
        <request index="5"  response="0000011000001111" foes="1000011000001111" cont="0"/>
        <request index="6"  response="0000011000001111" foes="1000011000001111" cont="0"/>
        <request index="7"  response="0110111000001000" foes="0110111000001000" cont="1"/>
        <request index="8"  response="0000000000000000" foes="0110000000000000" cont="0"/>
        <request index="9"  response="0000000010000000" foes="0110000011111000" cont="0"/>
        <request index="10" response="0000000010000000" foes="0110000011111000" cont="0"/>
        <request index="11" response="1000000010000110" foes="1110000010000110" cont="1"/>
        <request index="12" response="0000000000000110" foes="0000000000000110" cont="0"/>
        <request index="13" response="0000111100000110" foes="0000111110000110" cont="0"/>
        <request index="14" response="0000111100000110" foes="0000111110000110" cont="0"/>
        <request index="15" response="0000100001101110" foes="0000100001101110" cont="1"/>
    </junction>
    <junction id="TLW" type="traffic_light" x="-300.00" y="0.00" incLanes="N2TLW_0 N2TLW_1 N2TLW_2 TLC2TLW_0 TLC2TLW_1 TLC2TLW_2 S2TLW_0 S2TLW_1 S2TLW_2 W2TLW_0 W2TLW_1 W2TLW_2" intLanes=":TLW_0_0 :TLW_1_0 :TLW_1_1 :TLW_16_0 :TLW_4_0 :TLW_5_0 :TLW_5_1 :TLW_17_0 :TLW_8_0 :TLW_9_0 :TLW_9_1 :TLW_18_0 :TLW_12_0 :TLW_13_0 :TLW_13_1 :TLW_19_0" shape="-309.60,13.60 -290.40,13.60 -289.96,11.38 -289.40,10.60 -288.62,10.04 -287.62,9.71 -286.40,9.60 -286.40,-9.60 -288.62,-10.04 -289.40,-10.60 -289.96,-11.38 -290.29,-12.38 -290.40,-13.60 -309.60,-13.60 -310.04,-11.38 -310.60,-10.60 -311.38,-10.04 -312.38,-9.71 -313.60,-9.60 -313.60,9.60 -311.38,10.04 -310.60,10.60 -310.04,11.38 -309.71,12.38">
        <request index="0"  response="0000000000000000" foes="0000000001100000" cont="0"/>
        <request index="1"  response="1000000000000000" foes="1111100001100000" cont="0"/>
        <request index="2"  response="1000000000000000" foes="1111100001100000" cont="0"/>
        <request index="3"  response="1000011010000000" foes="1000011011100000" cont="1"/>
        <request index="4"  response="0000011000000000" foes="0000011000000000" cont="0"/>
        <request index="5"  response="0000011000001111" foes="1000011000001111" cont="0"/>
        <request index="6"  response="0000011000001111" foes="1000011000001111" cont="0"/>
        <request index="7"  response="0110111000001000" foes="0110111000001000" cont="1"/>
        <request index="8"  response="0000000000000000" foes="0110000000000000" cont="0"/>
        <request index="9"  response="0000000010000000" foes="0110000011111000" cont="0"/>
        <request index="10" response="0000000010000000" foes="0110000011111000" cont="0"/>
        <request index="11" response="1000000010000110" foes="1110000010000110" cont="1"/>
        <request index="12" response="0000000000000110" foes="0000000000000110" cont="0"/>
        <request index="13" response="0000111100000110" foes="0000111110000110" cont="0"/>
        <request index="14" response="0000111100000110" foes="0000111110000110" cont="0"/>
        <request index="15" response="0000100001101110" foes="0000100001101110" cont="1"/>
    </junction>
    <junction id="gneJ10" type="dead_end" x="1800.00" y="0.00" incLanes="TLE2E_0 TLE2E_1 TLE2E_2" intLanes="" shape="1800.00,0.00 1800.00,-9.60 1800.00,0.00"/>
    <junction id="gneJ11" type="dead_end" x="1100.00" y="700.00" incLanes="TLE2N_0 TLE2N_1 TLE2N_2" intLanes="" shape="1100.00,700.00 1109.60,700.00 1100.00,700.00"/>
    <junction id="gneJ12" type="dead_end" x="1100.00" y="-700.00" incLanes="TLE2S_0 TLE2S_1 TLE2S_2" intLanes="" shape="1100.00,-700.00 1090.40,-700.00 1100.00,-700.00"/>
    <junction id="gneJ14" type="dead_end" x="-1000.00" y="0.00" incLanes="TLW2W_0 TLW2W_1 TLW2W_2" intLanes="" shape="-1000.00,0.00 -1000.00,9.60 -1000.00,0.00"/>
    <junction id="gneJ15" type="dead_end" x="-300.00" y="700.00" incLanes="TLW2N_0 TLW2N_1 TLW2N_2" intLanes="" shape="-300.00,700.00 -290.40,700.00 -300.00,700.00"/>
    <junction id="gneJ16" type="dead_end" x="-300.00" y="-700.00" incLanes="TLW2S_0 TLW2S_1 TLW2S_2" intLanes="" shape="-300.00,-700.00 -309.60,-700.00 -300.00,-700.00"/>
    <junction id="gneJ6" type="dead_end" x="400.00" y="-700.00" incLanes="TLC2S_0 TLC2S_1 TLC2S_2" intLanes="" shape="400.00,-700.00 390.40,-700.00 400.00,-700.00"/>
    <junction id="gneJ8" type="dead_end" x="400.00" y="700.00" incLanes="TLC2N_0 TLC2N_1 TLC2N_2" intLanes="" shape="400.00,700.00 409.60,700.00 400.00,700.00"/>

    <junction id=":TLC_16_0" type="internal" x="403.20" y="1.60" incLanes=":TLC_3_0 S2TLC_0 S2TLC_1" intLanes=":TLC_5_0 :TLC_5_1 :TLC_7_0 :TLC_8_0 :TLC_9_0 :TLC_9_1 :TLC_13_0 :TLC_13_1 :TLC_15_0"/>
    <junction id=":TLC_17_0" type="internal" x="401.60" y="-3.20" incLanes=":TLC_7_0 TLW2TLC_0 TLW2TLC_1" intLanes=":TLC_1_0 :TLC_1_1 :TLC_3_0 :TLC_9_0 :TLC_9_1 :TLC_11_0 :TLC_12_0 :TLC_13_0 :TLC_13_1"/>
    <junction id=":TLC_18_0" type="internal" x="396.80" y="-1.60" incLanes=":TLC_11_0 N2TLC_0 N2TLC_1" intLanes=":TLC_0_0 :TLC_1_0 :TLC_1_1 :TLC_5_0 :TLC_5_1 :TLC_7_0 :TLC_13_0 :TLC_13_1 :TLC_15_0"/>
    <junction id=":TLC_19_0" type="internal" x="398.40" y="3.20" incLanes=":TLC_15_0 TLE2TLC_0 TLE2TLC_1" intLanes=":TLC_1_0 :TLC_1_1 :TLC_3_0 :TLC_4_0 :TLC_5_0 :TLC_5_1 :TLC_9_0 :TLC_9_1 :TLC_11_0"/>
    <junction id=":TLE_16_0" type="internal" x="1103.20" y="1.60" incLanes=":TLE_3_0 S2TLE_0 S2TLE_1" intLanes=":TLE_5_0 :TLE_5_1 :TLE_7_0 :TLE_8_0 :TLE_9_0 :TLE_9_1 :TLE_13_0 :TLE_13_1 :TLE_15_0"/>
    <junction id=":TLE_17_0" type="internal" x="1101.60" y="-3.20" incLanes=":TLE_7_0 TLC2TLE_0 TLC2TLE_1" intLanes=":TLE_1_0 :TLE_1_1 :TLE_3_0 :TLE_9_0 :TLE_9_1 :TLE_11_0 :TLE_12_0 :TLE_13_0 :TLE_13_1"/>