<?xml version="1.0" encoding="UTF-8"?>

<!-- generated on 2022-03-16 10:56:20 by Eclipse SUMO netedit Version 1.10.0
<configuration xmlns:xsi="http://www.w3.org/2001/XMLSchema-instance" xsi:noNamespaceSchemaLocation="http://sumo.dlr.de/xsd/netconvertConfiguration.xsd">

    <input>
        <sumo-net-file value="D:\GoogleDrive\Uni\Master\7.Semester\Masters%20Thesis\smart-traffic-system\src\TLCS\intersection\environment_double.net.xml"/>
    </input>

    <output>
        <output-file value="D:\GoogleDrive\Uni\Master\7.Semester\Masters%20Thesis\smart-traffic-system\src\TLCS\intersection\environment_double.net.xml"/>
    </output>

    <processing>
        <geometry.min-radius.fix.railways value="false"/>
        <geometry.max-grade.fix value="false"/>
        <offset.disable-normalization value="true"/>
        <lefthand value="false"/>
    </processing>

    <junctions>
        <no-turnarounds value="true"/>
        <junctions.corner-detail value="5"/>
        <junctions.limit-turn-speed value="5.5"/>
        <rectangular-lane-cut value="false"/>
    </junctions>

    <pedestrian>
        <walkingareas value="false"/>
    </pedestrian>

    <report>
        <aggregate-warnings value="5"/>
    </report>

</configuration>
-->

<net version="1.9" junctionCornerDetail="5" limitTurnSpeed="5.50" xmlns:xsi="http://www.w3.org/2001/XMLSchema-instance" xsi:noNamespaceSchemaLocation="http://sumo.dlr.de/xsd/net_file.xsd">

    <location netOffset="0.00,0.00" convBoundary="-300.00,-700.00,1800.00,700.00" origBoundary="-10000000000.00,-10000000000.00,10000000000.00,10000000000.00" projParameter="!"/>

    <edge id=":TLE_0" function="internal">
        <lane id=":TLE_0_0" index="0" speed="6.51" length="9.03" shape="1092.00,13.60 1091.65,11.15 1090.60,9.40 1088.85,8.35 1086.40,8.00"/>
    </edge>
    <edge id=":TLE_1" function="internal">
        <lane id=":TLE_1_0" index="0" speed="13.89" length="27.20" shape="1092.00,13.60 1092.00,-13.60"/>
        <lane id=":TLE_1_1" index="1" speed="13.89" length="27.20" shape="1095.20,13.60 1095.20,-13.60"/>
    </edge>
    <edge id=":TLE_3" function="internal">
        <lane id=":TLE_3_0" index="0" speed="10.36" length="24.51" shape="1098.40,13.60 1099.35,6.95 1102.20,2.20 1106.95,-0.65 1113.60,-1.60"/>
    </edge>
    <edge id=":TLE_4" function="internal">
        <lane id=":TLE_4_0" index="0" speed="6.51" length="9.03" shape="1113.60,8.00 1111.15,8.35 1109.40,9.40 1108.35,11.15 1108.00,13.60"/>
    </edge>
    <edge id=":TLE_5" function="internal">
        <lane id=":TLE_5_0" index="0" speed="13.89" length="27.20" shape="1113.60,8.00 1086.40,8.00"/>
        <lane id=":TLE_5_1" index="1" speed="13.89" length="27.20" shape="1113.60,4.80 1086.40,4.80"/>
    </edge>
    <edge id=":TLE_7" function="internal">
        <lane id=":TLE_7_0" index="0" speed="10.36" length="24.51" shape="1113.60,1.60 1106.95,0.65 1102.20,-2.20 1099.35,-6.95 1098.40,-13.60"/>
    </edge>
    <edge id=":TLE_8" function="internal">
        <lane id=":TLE_8_0" index="0" speed="6.51" length="9.03" shape="1108.00,-13.60 1108.35,-11.15 1109.40,-9.40 1111.15,-8.35 1113.60,-8.00"/>
    </edge>
    <edge id=":TLE_9" function="internal">
        <lane id=":TLE_9_0" index="0" speed="13.89" length="27.20" shape="1108.00,-13.60 1108.00,13.60"/>
        <lane id=":TLE_9_1" index="1" speed="13.89" length="27.20" shape="1104.80,-13.60 1104.80,13.60"/>
    </edge>
    <edge id=":TLE_11" function="internal">
        <lane id=":TLE_11_0" index="0" speed="10.36" length="24.51" shape="1101.60,-13.60 1100.65,-6.95 1097.80,-2.20 1093.05,0.65 1086.40,1.60"/>
    </edge>
    <edge id=":TLE_12" function="internal">
        <lane id=":TLE_12_0" index="0" speed="6.51" length="9.03" shape="1086.40,-8.00 1088.85,-8.35 1090.60,-9.40 1091.65,-11.15 1092.00,-13.60"/>
    </edge>
    <edge id=":TLE_13" function="internal">
        <lane id=":TLE_13_0" index="0" speed="13.89" length="27.20" shape="1086.40,-8.00 1113.60,-8.00"/>
        <lane id=":TLE_13_1" index="1" speed="13.89" length="27.20" shape="1086.40,-4.80 1113.60,-4.80"/>
    </edge>
    <edge id=":TLE_15" function="internal">
        <lane id=":TLE_15_0" index="0" speed="10.36" length="24.51" shape="1086.40,-1.60 1093.05,-0.65 1097.80,2.20 1100.65,6.95 1101.60,13.60"/>
    </edge>
    <edge id=":TLW_0" function="internal">
        <lane id=":TLW_0_0" index="0" speed="6.51" length="9.03" shape="392.00,13.60 391.65,11.15 390.60,9.40 388.85,8.35 386.40,8.00"/>
    </edge>
    <edge id=":TLW_1" function="internal">
        <lane id=":TLW_1_0" index="0" speed="13.89" length="27.20" shape="392.00,13.60 392.00,-13.60"/>
        <lane id=":TLW_1_1" index="1" speed="13.89" length="27.20" shape="395.20,13.60 395.20,-13.60"/>
    </edge>
    <edge id=":TLW_3" function="internal">
        <lane id=":TLW_3_0" index="0" speed="10.36" length="24.51" shape="398.40,13.60 399.35,6.95 402.20,2.20 406.95,-0.65 413.60,-1.60"/>
    </edge>
    <edge id=":TLW_4" function="internal">
        <lane id=":TLW_4_0" index="0" speed="6.51" length="9.03" shape="413.60,8.00 411.15,8.35 409.40,9.40 408.35,11.15 408.00,13.60"/>
    </edge>
    <edge id=":TLW_5" function="internal">
        <lane id=":TLW_5_0" index="0" speed="13.89" length="27.20" shape="413.60,8.00 386.40,8.00"/>
        <lane id=":TLW_5_1" index="1" speed="13.89" length="27.20" shape="413.60,4.80 386.40,4.80"/>
    </edge>
    <edge id=":TLW_7" function="internal">
        <lane id=":TLW_7_0" index="0" speed="10.36" length="24.51" shape="413.60,1.60 406.95,0.65 402.20,-2.20 399.35,-6.95 398.40,-13.60"/>
    </edge>
    <edge id=":TLW_8" function="internal">
        <lane id=":TLW_8_0" index="0" speed="6.51" length="9.03" shape="408.00,-13.60 408.35,-11.15 409.40,-9.40 411.15,-8.35 413.60,-8.00"/>
    </edge>
    <edge id=":TLW_9" function="internal">
        <lane id=":TLW_9_0" index="0" speed="13.89" length="27.20" shape="408.00,-13.60 408.00,13.60"/>
        <lane id=":TLW_9_1" index="1" speed="13.89" length="27.20" shape="404.80,-13.60 404.80,13.60"/>
    </edge>
    <edge id=":TLW_11" function="internal">
        <lane id=":TLW_11_0" index="0" speed="10.36" length="24.51" shape="401.60,-13.60 400.65,-6.95 397.80,-2.20 393.05,0.65 386.40,1.60"/>
    </edge>
    <edge id=":TLW_12" function="internal">
        <lane id=":TLW_12_0" index="0" speed="6.51" length="9.03" shape="386.40,-8.00 388.85,-8.35 390.60,-9.40 391.65,-11.15 392.00,-13.60"/>
    </edge>
    <edge id=":TLW_13" function="internal">
        <lane id=":TLW_13_0" index="0" speed="13.89" length="27.20" shape="386.40,-8.00 413.60,-8.00"/>
        <lane id=":TLW_13_1" index="1" speed="13.89" length="27.20" shape="386.40,-4.80 413.60,-4.80"/>
    </edge>
    <edge id=":TLW_15" function="internal">
        <lane id=":TLW_15_0" index="0" speed="10.36" length="24.51" shape="386.40,-1.60 393.05,-0.65 397.80,2.20 400.65,6.95 401.60,13.60"/>
    </edge>

    <edge id="E2TLE" from="gneJ10" to="TLE" priority="-1">
        <lane id="E2TLE_0" index="0" speed="13.89" length="686.40" shape="1800.00,8.00 1113.60,8.00"/>
        <lane id="E2TLE_1" index="1" speed="13.89" length="686.40" shape="1800.00,4.80 1113.60,4.80"/>
        <lane id="E2TLE_2" index="2" speed="13.89" length="686.40" shape="1800.00,1.60 1113.60,1.60"/>
    </edge>
    <edge id="N2TLE" from="gneJ11" to="TLE" priority="-1">
        <lane id="N2TLE_0" index="0" speed="13.89" length="686.40" shape="1092.00,700.00 1092.00,13.60"/>
        <lane id="N2TLE_1" index="1" speed="13.89" length="686.40" shape="1095.20,700.00 1095.20,13.60"/>
        <lane id="N2TLE_2" index="2" speed="13.89" length="686.40" shape="1098.40,700.00 1098.40,13.60"/>
    </edge>
    <edge id="N2TLW" from="gneJ8" to="TLW" priority="-1">
        <lane id="N2TLW_0" index="0" speed="13.89" length="686.40" shape="392.00,700.00 392.00,13.60"/>
        <lane id="N2TLW_1" index="1" speed="13.89" length="686.40" shape="395.20,700.00 395.20,13.60"/>
        <lane id="N2TLW_2" index="2" speed="13.89" length="686.40" shape="398.40,700.00 398.40,13.60"/>
    </edge>
    <edge id="S2TLE" from="gneJ12" to="TLE" priority="-1">
        <lane id="S2TLE_0" index="0" speed="13.89" length="686.40" shape="1108.00,-700.00 1108.00,-13.60"/>
        <lane id="S2TLE_1" index="1" speed="13.89" length="686.40" shape="1104.80,-700.00 1104.80,-13.60"/>
        <lane id="S2TLE_2" index="2" speed="13.89" length="686.40" shape="1101.60,-700.00 1101.60,-13.60"/>
    </edge>
    <edge id="S2TLW" from="gneJ6" to="TLW" priority="-1">
        <lane id="S2TLW_0" index="0" speed="13.89" length="686.40" shape="408.00,-700.00 408.00,-13.60"/>
        <lane id="S2TLW_1" index="1" speed="13.89" length="686.40" shape="404.80,-700.00 404.80,-13.60"/>
        <lane id="S2TLW_2" index="2" speed="13.89" length="686.40" shape="401.60,-700.00 401.60,-13.60"/>
    </edge>
    <edge id="TLE2E" from="TLE" to="gneJ10" priority="-1">
        <lane id="TLE2E_0" index="0" speed="13.89" length="686.40" shape="1113.60,-8.00 1800.00,-8.00"/>
        <lane id="TLE2E_1" index="1" speed="13.89" length="686.40" shape="1113.60,-4.80 1800.00,-4.80"/>
        <lane id="TLE2E_2" index="2" speed="13.89" length="686.40" shape="1113.60,-1.60 1800.00,-1.60"/>
    </edge>
    <edge id="TLE2N" from="TLE" to="gneJ11" priority="-1">
        <lane id="TLE2N_0" index="0" speed="13.89" length="686.40" shape="1108.00,13.60 1108.00,700.00"/>
        <lane id="TLE2N_1" index="1" speed="13.89" length="686.40" shape="1104.80,13.60 1104.80,700.00"/>
        <lane id="TLE2N_2" index="2" speed="13.89" length="686.40" shape="1101.60,13.60 1101.60,700.00"/>
    </edge>
    <edge id="TLE2S" from="TLE" to="gneJ12" priority="-1">
        <lane id="TLE2S_0" index="0" speed="13.89" length="686.40" shape="1092.00,-13.60 1092.00,-700.00"/>
        <lane id="TLE2S_1" index="1" speed="13.89" length="686.40" shape="1095.20,-13.60 1095.20,-700.00"/>
        <lane id="TLE2S_2" index="2" speed="13.89" length="686.40" shape="1098.40,-13.60 1098.40,-700.00"/>
    </edge>
    <edge id="TLE2TLW" from="TLE" to="TLW" priority="-1">
        <lane id="TLE2TLW_0" index="0" speed="13.89" length="672.80" shape="1086.40,8.00 413.60,8.00"/>
        <lane id="TLE2TLW_1" index="1" speed="13.89" length="672.80" shape="1086.40,4.80 413.60,4.80"/>
        <lane id="TLE2TLW_2" index="2" speed="13.89" length="672.80" shape="1086.40,1.60 413.60,1.60"/>
    </edge>
    <edge id="TLW2N" from="TLW" to="gneJ8" priority="-1">
        <lane id="TLW2N_0" index="0" speed="13.89" length="686.40" shape="408.00,13.60 408.00,700.00"/>
        <lane id="TLW2N_1" index="1" speed="13.89" length="686.40" shape="404.80,13.60 404.80,700.00"/>
        <lane id="TLW2N_2" index="2" speed="13.89" length="686.40" shape="401.60,13.60 401.60,700.00"/>
    </edge>
    <edge id="TLW2S" from="TLW" to="gneJ6" priority="-1">
        <lane id="TLW2S_0" index="0" speed="13.89" length="686.40" shape="392.00,-13.60 392.00,-700.00"/>
        <lane id="TLW2S_1" index="1" speed="13.89" length="686.40" shape="395.20,-13.60 395.20,-700.00"/>
        <lane id="TLW2S_2" index="2" speed="13.89" length="686.40" shape="398.40,-13.60 398.40,-700.00"/>
    </edge>
    <edge id="TLW2TLE" from="TLW" to="TLE" priority="-1">
        <lane id="TLW2TLE_0" index="0" speed="13.89" length="672.80" shape="413.60,-8.00 1086.40,-8.00"/>
        <lane id="TLW2TLE_1" index="1" speed="13.89" length="672.80" shape="413.60,-4.80 1086.40,-4.80"/>
        <lane id="TLW2TLE_2" index="2" speed="13.89" length="672.80" shape="413.60,-1.60 1086.40,-1.60"/>
    </edge>
    <edge id="TLW2W" from="TLW" to="gneJ1" priority="-1">
        <lane id="TLW2W_0" index="0" speed="13.89" length="686.40" shape="386.40,8.00 -300.00,8.00"/>
        <lane id="TLW2W_1" index="1" speed="13.89" length="686.40" shape="386.40,4.80 -300.00,4.80"/>
        <lane id="TLW2W_2" index="2" speed="13.89" length="686.40" shape="386.40,1.60 -300.00,1.60"/>
    </edge>
    <edge id="W2TLW" from="gneJ1" to="TLW" priority="-1">
        <lane id="W2TLW_0" index="0" speed="13.89" length="686.40" shape="-300.00,-8.00 386.40,-8.00"/>
        <lane id="W2TLW_1" index="1" speed="13.89" length="686.40" shape="-300.00,-4.80 386.40,-4.80"/>
        <lane id="W2TLW_2" index="2" speed="13.89" length="686.40" shape="-300.00,-1.60 386.40,-1.60"/>
    </edge>

    <tlLogic id="TLE" type="static" programID="0" offset="0">
        <phase duration="10000" state="GGGrrrrrGGGrrrrr"/>
        <phase duration="10000" state="yyyrrrrryyyrrrrr"/>
        <phase duration="10000" state="rrrGrrrrrrrGrrrr"/>
        <phase duration="10000" state="rrryrrrrrrryrrrr"/>
        <phase duration="10000" state="rrrrGGGrrrrrGGGr"/>
        <phase duration="10000" state="rrrryyyrrrrryyyr"/>
        <phase duration="10000" state="rrrrrrrGrrrrrrrG"/>
        <phase duration="10000" state="rrrrrrryrrrrrrry"/>
    </tlLogic>
    <tlLogic id="TLW" type="static" programID="0" offset="0">
        <phase duration="10000" state="GGGrrrrrGGGrrrrr"/>
        <phase duration="10000" state="yyyrrrrryyyrrrrr"/>
        <phase duration="10000" state="rrrGrrrrrrrGrrrr"/>
        <phase duration="10000" state="rrryrrrrrrryrrrr"/>
        <phase duration="10000" state="rrrrGGGrrrrrGGGr"/>
        <phase duration="10000" state="rrrryyyrrrrryyyr"/>
        <phase duration="10000" state="rrrrrrrGrrrrrrrG"/>
        <phase duration="10000" state="rrrrrrryrrrrrrry"/>
    </tlLogic>

    <junction id="TLE" type="traffic_light" x="1100.00" y="0.00" incLanes="N2TLE_0 N2TLE_1 N2TLE_2 E2TLE_0 E2TLE_1 E2TLE_2 S2TLE_0 S2TLE_1 S2TLE_2 TLW2TLE_0 TLW2TLE_1 TLW2TLE_2" intLanes=":TLE_0_0 :TLE_1_0 :TLE_1_1 :TLE_3_0 :TLE_4_0 :TLE_5_0 :TLE_5_1 :TLE_7_0 :TLE_8_0 :TLE_9_0 :TLE_9_1 :TLE_11_0 :TLE_12_0 :TLE_13_0 :TLE_13_1 :TLE_15_0" shape="1090.40,13.60 1109.60,13.60 1110.04,11.38 1110.60,10.60 1111.38,10.04 1112.38,9.71 1113.60,9.60 1113.60,-9.60 1111.38,-10.04 1110.60,-10.60 1110.04,-11.38 1109.71,-12.38 1109.60,-13.60 1090.40,-13.60 1089.96,-11.38 1089.40,-10.60 1088.62,-10.04 1087.62,-9.71 1086.40,-9.60 1086.40,9.60 1088.62,10.04 1089.40,10.60 1089.96,11.38 1090.29,12.38">
        <request index="0"  response="0000000000000000" foes="0000000001100000" cont="0"/>
        <request index="1"  response="0000000000000000" foes="1111100001100000" cont="0"/>
        <request index="2"  response="0000000000000000" foes="1111100001100000" cont="0"/>
        <request index="3"  response="0000011000000000" foes="1000011011100000" cont="0"/>
        <request index="4"  response="0000011000000000" foes="0000011000000000" cont="0"/>
        <request index="5"  response="0000011000001111" foes="1000011000001111" cont="0"/>
        <request index="6"  response="0000011000001111" foes="1000011000001111" cont="0"/>
        <request index="7"  response="0110111000001000" foes="0110111000001000" cont="0"/>
        <request index="8"  response="0000000000000000" foes="0110000000000000" cont="0"/>
        <request index="9"  response="0000000000000000" foes="0110000011111000" cont="0"/>
        <request index="10" response="0000000000000000" foes="0110000011111000" cont="0"/>
        <request index="11" response="0000000000000110" foes="1110000010000110" cont="0"/>
        <request index="12" response="0000000000000110" foes="0000000000000110" cont="0"/>
        <request index="13" response="0000111100000110" foes="0000111110000110" cont="0"/>
        <request index="14" response="0000111100000110" foes="0000111110000110" cont="0"/>
        <request index="15" response="0000100001101110" foes="0000100001101110" cont="0"/>
    </junction>
    <junction id="TLW" type="traffic_light" x="400.00" y="0.00" incLanes="N2TLW_0 N2TLW_1 N2TLW_2 TLE2TLW_0 TLE2TLW_1 TLE2TLW_2 S2TLW_0 S2TLW_1 S2TLW_2 W2TLW_0 W2TLW_1 W2TLW_2" intLanes=":TLW_0_0 :TLW_1_0 :TLW_1_1 :TLW_3_0 :TLW_4_0 :TLW_5_0 :TLW_5_1 :TLW_7_0 :TLW_8_0 :TLW_9_0 :TLW_9_1 :TLW_11_0 :TLW_12_0 :TLW_13_0 :TLW_13_1 :TLW_15_0" shape="390.40,13.60 409.60,13.60 410.04,11.38 410.60,10.60 411.38,10.04 412.38,9.71 413.60,9.60 413.60,-9.60 411.38,-10.04 410.60,-10.60 410.04,-11.38 409.71,-12.38 409.60,-13.60 390.40,-13.60 389.96,-11.38 389.40,-10.60 388.62,-10.04 387.62,-9.71 386.40,-9.60 386.40,9.60 388.62,10.04 389.40,10.60 389.96,11.38 390.29,12.38">
        <request index="0"  response="0000000000000000" foes="0000000001100000" cont="0"/>
        <request index="1"  response="0000000000000000" foes="1111100001100000" cont="0"/>
        <request index="2"  response="0000000000000000" foes="1111100001100000" cont="0"/>
        <request index="3"  response="0000011000000000" foes="1000011011100000" cont="0"/>
        <request index="4"  response="0000011000000000" foes="0000011000000000" cont="0"/>
        <request index="5"  response="0000011000001111" foes="1000011000001111" cont="0"/>
        <request index="6"  response="0000011000001111" foes="1000011000001111" cont="0"/>
        <request index="7"  response="0110111000001000" foes="0110111000001000" cont="0"/>
        <request index="8"  response="0000000000000000" foes="0110000000000000" cont="0"/>
        <request index="9"  response="0000000000000000" foes="0110000011111000" cont="0"/>
        <request index="10" response="0000000000000000" foes="0110000011111000" cont="0"/>
        <request index="11" response="0000000000000110" foes="1110000010000110" cont="0"/>
        <request index="12" response="0000000000000110" foes="0000000000000110" cont="0"/>
        <request index="13" response="0000111100000110" foes="0000111110000110" cont="0"/>
        <request index="14" response="0000111100000110" foes="0000111110000110" cont="0"/>
        <request index="15" response="0000100001101110" foes="0000100001101110" cont="0"/>
    </junction>
    <junction id="gneJ1" type="dead_end" x="-300.00" y="0.00" incLanes="TLW2W_0 TLW2W_1 TLW2W_2" intLanes="" shape="-300.00,0.00 -300.00,9.60 -300.00,0.00"/>
    <junction id="gneJ10" type="dead_end" x="1800.00" y="0.00" incLanes="TLE2E_0 TLE2E_1 TLE2E_2" intLanes="" shape="1800.00,0.00 1800.00,-9.60 1800.00,0.00"/>
    <junction id="gneJ11" type="dead_end" x="1100.00" y="700.00" incLanes="TLE2N_0 TLE2N_1 TLE2N_2" intLanes="" shape="1100.00,700.00 1109.60,700.00 1100.00,700.00"/>
    <junction id="gneJ12" type="dead_end" x="1100.00" y="-700.00" incLanes="TLE2S_0 TLE2S_1 TLE2S_2" intLanes="" shape="1100.00,-700.00 1090.40,-700.00 1100.00,-700.00"/>
    <junction id="gneJ6" type="dead_end" x="400.00" y="-700.00" incLanes="TLW2S_0 TLW2S_1 TLW2S_2" intLanes="" shape="400.00,-700.00 390.40,-700.00 400.00,-700.00"/>
    <junction id="gneJ8" type="dead_end" x="400.00" y="700.00" incLanes="TLW2N_0 TLW2N_1 TLW2N_2" intLanes="" shape="400.00,700.00 409.60,700.00 400.00,700.00"/>

    <connection from="E2TLE" to="TLE2N" fromLane="0" toLane="0" via=":TLE_4_0" tl="TLE" linkIndex="4" dir="r" state="o"/>
    <connection from="E2TLE" to="TLE2TLW" fromLane="0" toLane="0" via=":TLE_5_0" tl="TLE" linkIndex="5" dir="s" state="o"/>
    <connection from="E2TLE" to="TLE2TLW" fromLane="1" toLane="1" via=":TLE_5_1" tl="TLE" linkIndex="6" dir="s" state="o"/>
    <connection from="E2TLE" to="TLE2S" fromLane="2" toLane="2" via=":TLE_7_0" tl="TLE" linkIndex="7" dir="l" state="o"/>
    <connection from="N2TLE" to="TLE2TLW" fromLane="0" toLane="0" via=":TLE_0_0" tl="TLE" linkIndex="0" dir="r" state="O"/>
    <connection from="N2TLE" to="TLE2S" fromLane="0" toLane="0" via=":TLE_1_0" tl="TLE" linkIndex="1" dir="s" state="O"/>
    <connection from="N2TLE" to="TLE2S" fromLane="1" toLane="1" via=":TLE_1_1" tl="TLE" linkIndex="2" dir="s" state="O"/>
    <connection from="N2TLE" to="TLE2E" fromLane="2" toLane="2" via=":TLE_3_0" tl="TLE" linkIndex="3" dir="l" state="o"/>
    <connection from="N2TLW" to="TLW2W" fromLane="0" toLane="0" via=":TLW_0_0" tl="TLW" linkIndex="0" dir="r" state="O"/>
    <connection from="N2TLW" to="TLW2S" fromLane="0" toLane="0" via=":TLW_1_0" tl="TLW" linkIndex="1" dir="s" state="O"/>
    <connection from="N2TLW" to="TLW2S" fromLane="1" toLane="1" via=":TLW_1_1" tl="TLW" linkIndex="2" dir="s" state="O"/>
    <connection from="N2TLW" to="TLW2TLE" fromLane="2" toLane="2" via=":TLW_3_0" tl="TLW" linkIndex="3" dir="l" state="o"/>
    <connection from="S2TLE" to="TLE2E" fromLane="0" toLane="0" via=":TLE_8_0" tl="TLE" linkIndex="8" dir="r" state="O"/>
    <connection from="S2TLE" to="TLE2N" fromLane="0" toLane="0" via=":TLE_9_0" tl="TLE" linkIndex="9" dir="s" state="O"/>
    <connection from="S2TLE" to="TLE2N" fromLane="1" toLane="1" via=":TLE_9_1" tl="TLE" linkIndex="10" dir="s" state="O"/>
    <connection from="S2TLE" to="TLE2TLW" fromLane="2" toLane="2" via=":TLE_11_0" tl="TLE" linkIndex="11" dir="l" state="o"/>
    <connection from="S2TLW" to="TLW2TLE" fromLane="0" toLane="0" via=":TLW_8_0" tl="TLW" linkIndex="8" dir="r" state="O"/>
    <connection from="S2TLW" to="TLW2N" fromLane="0" toLane="0" via=":TLW_9_0" tl="TLW" linkIndex="9" dir="s" state="O"/>
    <connection from="S2TLW" to="TLW2N" fromLane="1" toLane="1" via=":TLW_9_1" tl="TLW" linkIndex="10" dir="s" state="O"/>
    <connection from="S2TLW" to="TLW2W" fromLane="2" toLane="2" via=":TLW_11_0" tl="TLW" linkIndex="11" dir="l" state="o"/>
    <connection from="TLE2TLW" to="TLW2N" fromLane="0" toLane="0" via=":TLW_4_0" tl="TLW" linkIndex="4" dir="r" state="o"/>
    <connection from="TLE2TLW" to="TLW2W" fromLane="0" toLane="0" via=":TLW_5_0" tl="TLW" linkIndex="5" dir="s" state="o"/>
    <connection from="TLE2TLW" to="TLW2W" fromLane="1" toLane="1" via=":TLW_5_1" tl="TLW" linkIndex="6" dir="s" state="o"/>
    <connection from="TLE2TLW" to="TLW2S" fromLane="2" toLane="2" via=":TLW_7_0" tl="TLW" linkIndex="7" dir="l" state="o"/>
    <connection from="TLW2TLE" to="TLE2S" fromLane="0" toLane="0" via=":TLE_12_0" tl="TLE" linkIndex="12" dir="r" state="o"/>
    <connection from="TLW2TLE" to="TLE2E" fromLane="0" toLane="0" via=":TLE_13_0" tl="TLE" linkIndex="13" dir="s" state="o"/>
    <connection from="TLW2TLE" to="TLE2E" fromLane="1" toLane="1" via=":TLE_13_1" tl="TLE" linkIndex="14" dir="s" state="o"/>
    <connection from="TLW2TLE" to="TLE2N" fromLane="2" toLane="2" via=":TLE_15_0" tl="TLE" linkIndex="15" dir="l" state="o"/>
    <connection from="W2TLW" to="TLW2S" fromLane="0" toLane="0" via=":TLW_12_0" tl="TLW" linkIndex="12" dir="r" state="o"/>
    <connection from="W2TLW" to="TLW2TLE" fromLane="0" toLane="0" via=":TLW_13_0" tl="TLW" linkIndex="13" dir="s" state="o"/>
    <connection from="W2TLW" to="TLW2TLE" fromLane="1" toLane="1" via=":TLW_13_1" tl="TLW" linkIndex="14" dir="s" state="o"/>
    <connection from="W2TLW" to="TLW2N" fromLane="2" toLane="2" via=":TLW_15_0" tl="TLW" linkIndex="15" dir="l" state="o"/>

    <connection from=":TLE_0" to="TLE2TLW" fromLane="0" toLane="0" dir="r" state="M"/>
    <connection from=":TLE_1" to="TLE2S" fromLane="0" toLane="0" dir="s" state="M"/>
    <connection from=":TLE_1" to="TLE2S" fromLane="1" toLane="1" dir="s" state="M"/>
    <connection from=":TLE_3" to="TLE2E" fromLane="0" toLane="2" dir="l" state="M"/>
    <connection from=":TLE_4" to="TLE2N" fromLane="0" toLane="0" dir="r" state="M"/>
    <connection from=":TLE_5" to="TLE2TLW" fromLane="0" toLane="0" dir="s" state="M"/>
    <connection from=":TLE_5" to="TLE2TLW" fromLane="1" toLane="1" dir="s" state="M"/>
    <connection from=":TLE_7" to="TLE2S" fromLane="0" toLane="2" dir="l" state="M"/>
    <connection from=":TLE_8" to="TLE2E" fromLane="0" toLane="0" dir="r" state="M"/>
    <connection from=":TLE_9" to="TLE2N" fromLane="0" toLane="0" dir="s" state="M"/>
    <connection from=":TLE_9" to="TLE2N" fromLane="1" toLane="1" dir="s" state="M"/>
    <connection from=":TLE_11" to="TLE2TLW" fromLane="0" toLane="2" dir="l" state="M"/>
    <connection from=":TLE_12" to="TLE2S" fromLane="0" toLane="0" dir="r" state="M"/>
    <connection from=":TLE_13" to="TLE2E" fromLane="0" toLane="0" dir="s" state="M"/>
    <connection from=":TLE_13" to="TLE2E" fromLane="1" toLane="1" dir="s" state="M"/>
    <connection from=":TLE_15" to="TLE2N" fromLane="0" toLane="2" dir="l" state="M"/>
    <connection from=":TLW_0" to="TLW2W" fromLane="0" toLane="0" dir="r" state="M"/>
    <connection from=":TLW_1" to="TLW2S" fromLane="0" toLane="0" dir="s" state="M"/>
    <connection from=":TLW_1" to="TLW2S" fromLane="1" toLane="1" dir="s" state="M"/>
    <connection from=":TLW_3" to="TLW2TLE" fromLane="0" toLane="2" dir="l" state="M"/>
    <connection from=":TLW_4" to="TLW2N" fromLane="0" toLane="0" dir="r" state="M"/>
    <connection from=":TLW_5" to="TLW2W" fromLane="0" toLane="0" dir="s" state="M"/>
    <connection from=":TLW_5" to="TLW2W" fromLane="1" toLane="1" dir="s" state="M"/>
    <connection from=":TLW_7" to="TLW2S" fromLane="0" toLane="2" dir="l" state="M"/>
    <connection from=":TLW_8" to="TLW2TLE" fromLane="0" toLane="0" dir="r" state="M"/>
    <connection from=":TLW_9" to="TLW2N" fromLane="0" toLane="0" dir="s" state="M"/>
    <connection from=":TLW_9" to="TLW2N" fromLane="1" toLane="1" dir="s" state="M"/>
    <connection from=":TLW_11" to="TLW2W" fromLane="0" toLane="2" dir="l" state="M"/>
    <connection from=":TLW_12" to="TLW2S" fromLane="0" toLane="0" dir="r" state="M"/>
    <connection from=":TLW_13" to="TLW2TLE" fromLane="0" toLane="0" dir="s" state="M"/>
    <connection from=":TLW_13" to="TLW2TLE" fromLane="1" toLane="1" dir="s" state="M"/>
    <connection from=":TLW_15" to="TLW2N" fromLane="0" toLane="2" dir="l" state="M"/>

</net>
