<?xml version="1.0" encoding="UTF-8"?>

<!-- generated on 2022-02-21 20:14:24 by Eclipse SUMO netedit Version 1.10.0
<configuration xmlns:xsi="http://www.w3.org/2001/XMLSchema-instance" xsi:noNamespaceSchemaLocation="http://sumo.dlr.de/xsd/netconvertConfiguration.xsd">

    <input>
        <sumo-net-file value="D:\GoogleDrive\Uni\Master\7.Semester\Masters%20Thesis\smart-traffic-system\src\TLCS\intersection\environment.net.xml"/>
    </input>

    <output>
        <output-file value="D:\GoogleDrive\Uni\Master\7.Semester\Masters%20Thesis\smart-traffic-system\src\TLCS\intersection\environment.net.xml"/>
    </output>

    <processing>
        <geometry.min-radius.fix.railways value="false"/>
        <geometry.max-grade.fix value="false"/>
        <offset.disable-normalization value="true"/>
        <lefthand value="false"/>
    </processing>

    <junctions>
        <no-turnarounds value="true"/>
        <junctions.corner-detail value="5"/>
        <junctions.limit-turn-speed value="5.5"/>
        <rectangular-lane-cut value="false"/>
    </junctions>

    <pedestrian>
        <walkingareas value="false"/>
    </pedestrian>

    <report>
        <aggregate-warnings value="5"/>
    </report>

</configuration>
-->

<net version="1.9" junctionCornerDetail="5" limitTurnSpeed="5.50" xmlns:xsi="http://www.w3.org/2001/XMLSchema-instance" xsi:noNamespaceSchemaLocation="http://sumo.dlr.de/xsd/net_file.xsd">

    <location netOffset="0.00,0.00" convBoundary="-1300.00,-1100.00,1300.00,1500.00" origBoundary="-10000000000.00,-10000000000.00,10000000000.00,10000000000.00" projParameter="!"/>

    <edge id=":TLC_0" function="internal">
        <lane id=":TLC_0_0" index="0" speed="6.51" length="9.03" shape="-8.00,213.60 -8.35,211.15 -9.40,209.40 -11.15,208.35 -13.60,208.00"/>
    </edge>
    <edge id=":TLC_1" function="internal">
        <lane id=":TLC_1_0" index="0" speed="13.89" length="27.20" shape="-8.00,213.60 -8.00,186.40"/>
        <lane id=":TLC_1_1" index="1" speed="13.89" length="27.20" shape="-4.80,213.60 -4.80,186.40"/>
    </edge>
    <edge id=":TLC_3" function="internal">
        <lane id=":TLC_3_0" index="0" speed="10.36" length="13.42" shape="-1.60,213.60 -0.65,206.95 2.20,202.20 3.20,201.60"/>
    </edge>
    <edge id=":TLC_16" function="internal">
        <lane id=":TLC_16_0" index="0" speed="10.36" length="11.09" shape="3.20,201.60 6.95,199.35 13.60,198.40"/>
    </edge>
    <edge id=":TLC_4" function="internal">
        <lane id=":TLC_4_0" index="0" speed="6.51" length="9.03" shape="13.60,208.00 11.15,208.35 9.40,209.40 8.35,211.15 8.00,213.60"/>
    </edge>
    <edge id=":TLC_5" function="internal">
        <lane id=":TLC_5_0" index="0" speed="13.89" length="27.20" shape="13.60,208.00 -13.60,208.00"/>
        <lane id=":TLC_5_1" index="1" speed="13.89" length="27.20" shape="13.60,204.80 -13.60,204.80"/>
    </edge>
    <edge id=":TLC_7" function="internal">
        <lane id=":TLC_7_0" index="0" speed="10.36" length="13.42" shape="13.60,201.60 6.95,200.65 2.20,197.80 1.60,196.80"/>
    </edge>
    <edge id=":TLC_17" function="internal">
        <lane id=":TLC_17_0" index="0" speed="10.36" length="11.09" shape="1.60,196.80 -0.65,193.05 -1.60,186.40"/>
    </edge>
    <edge id=":TLC_8" function="internal">
        <lane id=":TLC_8_0" index="0" speed="6.51" length="9.03" shape="8.00,186.40 8.35,188.85 9.40,190.60 11.15,191.65 13.60,192.00"/>
    </edge>
    <edge id=":TLC_9" function="internal">
        <lane id=":TLC_9_0" index="0" speed="13.89" length="27.20" shape="8.00,186.40 8.00,213.60"/>
        <lane id=":TLC_9_1" index="1" speed="13.89" length="27.20" shape="4.80,186.40 4.80,213.60"/>
    </edge>
    <edge id=":TLC_11" function="internal">
        <lane id=":TLC_11_0" index="0" speed="10.36" length="13.42" shape="1.60,186.40 0.65,193.05 -2.20,197.80 -3.20,198.40"/>
    </edge>
    <edge id=":TLC_18" function="internal">
        <lane id=":TLC_18_0" index="0" speed="10.36" length="11.09" shape="-3.20,198.40 -6.95,200.65 -13.60,201.60"/>
    </edge>
    <edge id=":TLC_12" function="internal">
        <lane id=":TLC_12_0" index="0" speed="6.51" length="9.03" shape="-13.60,192.00 -11.15,191.65 -9.40,190.60 -8.35,188.85 -8.00,186.40"/>
    </edge>
    <edge id=":TLC_13" function="internal">
        <lane id=":TLC_13_0" index="0" speed="13.89" length="27.20" shape="-13.60,192.00 13.60,192.00"/>
        <lane id=":TLC_13_1" index="1" speed="13.89" length="27.20" shape="-13.60,195.20 13.60,195.20"/>
    </edge>
    <edge id=":TLC_15" function="internal">
        <lane id=":TLC_15_0" index="0" speed="10.36" length="13.42" shape="-13.60,198.40 -6.95,199.35 -2.20,202.20 -1.60,203.20"/>
    </edge>
    <edge id=":TLC_19" function="internal">
        <lane id=":TLC_19_0" index="0" speed="10.36" length="11.09" shape="-1.60,203.20 0.65,206.95 1.60,213.60"/>
    </edge>
    <edge id=":TLE_0" function="internal">
        <lane id=":TLE_0_0" index="0" speed="6.51" length="9.03" shape="692.00,213.60 691.65,211.15 690.60,209.40 688.85,208.35 686.40,208.00"/>
    </edge>
    <edge id=":TLE_1" function="internal">
        <lane id=":TLE_1_0" index="0" speed="13.89" length="27.20" shape="692.00,213.60 692.00,186.40"/>
        <lane id=":TLE_1_1" index="1" speed="13.89" length="27.20" shape="695.20,213.60 695.20,186.40"/>
    </edge>
    <edge id=":TLE_3" function="internal">
        <lane id=":TLE_3_0" index="0" speed="10.36" length="13.42" shape="698.40,213.60 699.35,206.95 702.20,202.20 703.20,201.60"/>
    </edge>
    <edge id=":TLE_16" function="internal">
        <lane id=":TLE_16_0" index="0" speed="10.36" length="11.09" shape="703.20,201.60 706.95,199.35 713.60,198.40"/>
    </edge>
    <edge id=":TLE_4" function="internal">
        <lane id=":TLE_4_0" index="0" speed="6.51" length="9.03" shape="713.60,208.00 711.15,208.35 709.40,209.40 708.35,211.15 708.00,213.60"/>
    </edge>
    <edge id=":TLE_5" function="internal">
        <lane id=":TLE_5_0" index="0" speed="13.89" length="27.20" shape="713.60,208.00 686.40,208.00"/>
        <lane id=":TLE_5_1" index="1" speed="13.89" length="27.20" shape="713.60,204.80 686.40,204.80"/>
    </edge>
    <edge id=":TLE_7" function="internal">
        <lane id=":TLE_7_0" index="0" speed="10.36" length="13.42" shape="713.60,201.60 706.95,200.65 702.20,197.80 701.60,196.80"/>
    </edge>
    <edge id=":TLE_17" function="internal">
        <lane id=":TLE_17_0" index="0" speed="10.36" length="11.09" shape="701.60,196.80 699.35,193.05 698.40,186.40"/>
    </edge>
    <edge id=":TLE_8" function="internal">
        <lane id=":TLE_8_0" index="0" speed="6.51" length="9.03" shape="708.00,186.40 708.35,188.85 709.40,190.60 711.15,191.65 713.60,192.00"/>
    </edge>
    <edge id=":TLE_9" function="internal">
        <lane id=":TLE_9_0" index="0" speed="13.89" length="27.20" shape="708.00,186.40 708.00,213.60"/>
        <lane id=":TLE_9_1" index="1" speed="13.89" length="27.20" shape="704.80,186.40 704.80,213.60"/>
    </edge>
    <edge id=":TLE_11" function="internal">
        <lane id=":TLE_11_0" index="0" speed="10.36" length="13.42" shape="701.60,186.40 700.65,193.05 697.80,197.80 696.80,198.40"/>
    </edge>
    <edge id=":TLE_18" function="internal">
        <lane id=":TLE_18_0" index="0" speed="10.36" length="11.09" shape="696.80,198.40 693.05,200.65 686.40,201.60"/>
    </edge>
    <edge id=":TLE_12" function="internal">
        <lane id=":TLE_12_0" index="0" speed="6.51" length="9.03" shape="686.40,192.00 688.85,191.65 690.60,190.60 691.65,188.85 692.00,186.40"/>
    </edge>
    <edge id=":TLE_13" function="internal">
        <lane id=":TLE_13_0" index="0" speed="13.89" length="27.20" shape="686.40,192.00 713.60,192.00"/>
        <lane id=":TLE_13_1" index="1" speed="13.89" length="27.20" shape="686.40,195.20 713.60,195.20"/>
    </edge>
    <edge id=":TLE_15" function="internal">
        <lane id=":TLE_15_0" index="0" speed="10.36" length="13.42" shape="686.40,198.40 693.05,199.35 697.80,202.20 698.40,203.20"/>
    </edge>
    <edge id=":TLE_19" function="internal">
        <lane id=":TLE_19_0" index="0" speed="10.36" length="11.09" shape="698.40,203.20 700.65,206.95 701.60,213.60"/>
    </edge>
    <edge id=":TLN_0" function="internal">
        <lane id=":TLN_0_0" index="0" speed="6.51" length="9.03" shape="-8.00,913.60 -8.35,911.15 -9.40,909.40 -11.15,908.35 -13.60,908.00"/>
    </edge>
    <edge id=":TLN_1" function="internal">
        <lane id=":TLN_1_0" index="0" speed="13.89" length="27.20" shape="-8.00,913.60 -8.00,886.40"/>
        <lane id=":TLN_1_1" index="1" speed="13.89" length="27.20" shape="-4.80,913.60 -4.80,886.40"/>
    </edge>
    <edge id=":TLN_3" function="internal">
        <lane id=":TLN_3_0" index="0" speed="10.36" length="13.42" shape="-1.60,913.60 -0.65,906.95 2.20,902.20 3.20,901.60"/>
    </edge>
    <edge id=":TLN_16" function="internal">
        <lane id=":TLN_16_0" index="0" speed="10.36" length="11.09" shape="3.20,901.60 6.95,899.35 13.60,898.40"/>
    </edge>
    <edge id=":TLN_4" function="internal">
        <lane id=":TLN_4_0" index="0" speed="6.51" length="9.03" shape="13.60,908.00 11.15,908.35 9.40,909.40 8.35,911.15 8.00,913.60"/>
    </edge>
    <edge id=":TLN_5" function="internal">
        <lane id=":TLN_5_0" index="0" speed="13.89" length="27.20" shape="13.60,908.00 -13.60,908.00"/>
        <lane id=":TLN_5_1" index="1" speed="13.89" length="27.20" shape="13.60,904.80 -13.60,904.80"/>
    </edge>
    <edge id=":TLN_7" function="internal">
        <lane id=":TLN_7_0" index="0" speed="10.36" length="13.42" shape="13.60,901.60 6.95,900.65 2.20,897.80 1.60,896.80"/>
    </edge>
    <edge id=":TLN_17" function="internal">
        <lane id=":TLN_17_0" index="0" speed="10.36" length="11.09" shape="1.60,896.80 -0.65,893.05 -1.60,886.40"/>
    </edge>
    <edge id=":TLN_8" function="internal">
        <lane id=":TLN_8_0" index="0" speed="6.51" length="9.03" shape="8.00,886.40 8.35,888.85 9.40,890.60 11.15,891.65 13.60,892.00"/>
    </edge>
    <edge id=":TLN_9" function="internal">
        <lane id=":TLN_9_0" index="0" speed="13.89" length="27.20" shape="8.00,886.40 8.00,913.60"/>
        <lane id=":TLN_9_1" index="1" speed="13.89" length="27.20" shape="4.80,886.40 4.80,913.60"/>
    </edge>
    <edge id=":TLN_11" function="internal">
        <lane id=":TLN_11_0" index="0" speed="10.36" length="13.42" shape="1.60,886.40 0.65,893.05 -2.20,897.80 -3.20,898.40"/>
    </edge>
    <edge id=":TLN_18" function="internal">
        <lane id=":TLN_18_0" index="0" speed="10.36" length="11.09" shape="-3.20,898.40 -6.95,900.65 -13.60,901.60"/>
    </edge>
    <edge id=":TLN_12" function="internal">
        <lane id=":TLN_12_0" index="0" speed="6.51" length="9.03" shape="-13.60,892.00 -11.15,891.65 -9.40,890.60 -8.35,888.85 -8.00,886.40"/>
    </edge>
    <edge id=":TLN_13" function="internal">
        <lane id=":TLN_13_0" index="0" speed="13.89" length="27.20" shape="-13.60,892.00 13.60,892.00"/>
        <lane id=":TLN_13_1" index="1" speed="13.89" length="27.20" shape="-13.60,895.20 13.60,895.20"/>
    </edge>
    <edge id=":TLN_15" function="internal">
        <lane id=":TLN_15_0" index="0" speed="10.36" length="13.42" shape="-13.60,898.40 -6.95,899.35 -2.20,902.20 -1.60,903.20"/>
    </edge>
    <edge id=":TLN_19" function="internal">
        <lane id=":TLN_19_0" index="0" speed="10.36" length="11.09" shape="-1.60,903.20 0.65,906.95 1.60,913.60"/>
    </edge>
    <edge id=":TLS_0" function="internal">
        <lane id=":TLS_0_0" index="0" speed="6.51" length="9.03" shape="-8.00,-486.40 -8.35,-488.85 -9.40,-490.60 -11.15,-491.65 -13.60,-492.00"/>
    </edge>
    <edge id=":TLS_1" function="internal">
        <lane id=":TLS_1_0" index="0" speed="13.89" length="27.20" shape="-8.00,-486.40 -8.00,-513.60"/>
        <lane id=":TLS_1_1" index="1" speed="13.89" length="27.20" shape="-4.80,-486.40 -4.80,-513.60"/>
    </edge>
    <edge id=":TLS_3" function="internal">
        <lane id=":TLS_3_0" index="0" speed="10.36" length="13.42" shape="-1.60,-486.40 -0.65,-493.05 2.20,-497.80 3.20,-498.40"/>
    </edge>
    <edge id=":TLS_16" function="internal">
        <lane id=":TLS_16_0" index="0" speed="10.36" length="11.09" shape="3.20,-498.40 6.95,-500.65 13.60,-501.60"/>
    </edge>
    <edge id=":TLS_4" function="internal">
        <lane id=":TLS_4_0" index="0" speed="6.51" length="9.03" shape="13.60,-492.00 11.15,-491.65 9.40,-490.60 8.35,-488.85 8.00,-486.40"/>
    </edge>
    <edge id=":TLS_5" function="internal">
        <lane id=":TLS_5_0" index="0" speed="13.89" length="27.20" shape="13.60,-492.00 -13.60,-492.00"/>
        <lane id=":TLS_5_1" index="1" speed="13.89" length="27.20" shape="13.60,-495.20 -13.60,-495.20"/>
    </edge>
    <edge id=":TLS_7" function="internal">
        <lane id=":TLS_7_0" index="0" speed="10.36" length="13.42" shape="13.60,-498.40 6.95,-499.35 2.20,-502.20 1.60,-503.20"/>
    </edge>
    <edge id=":TLS_17" function="internal">
        <lane id=":TLS_17_0" index="0" speed="10.36" length="11.09" shape="1.60,-503.20 -0.65,-506.95 -1.60,-513.60"/>
    </edge>
    <edge id=":TLS_8" function="internal">
        <lane id=":TLS_8_0" index="0" speed="6.51" length="9.03" shape="8.00,-513.60 8.35,-511.15 9.40,-509.40 11.15,-508.35 13.60,-508.00"/>
    </edge>
    <edge id=":TLS_9" function="internal">
        <lane id=":TLS_9_0" index="0" speed="13.89" length="27.20" shape="8.00,-513.60 8.00,-486.40"/>
        <lane id=":TLS_9_1" index="1" speed="13.89" length="27.20" shape="4.80,-513.60 4.80,-486.40"/>
    </edge>
    <edge id=":TLS_11" function="internal">
        <lane id=":TLS_11_0" index="0" speed="10.36" length="13.42" shape="1.60,-513.60 0.65,-506.95 -2.20,-502.20 -3.20,-501.60"/>
    </edge>
    <edge id=":TLS_18" function="internal">
        <lane id=":TLS_18_0" index="0" speed="10.36" length="11.09" shape="-3.20,-501.60 -6.95,-499.35 -13.60,-498.40"/>
    </edge>
    <edge id=":TLS_12" function="internal">
        <lane id=":TLS_12_0" index="0" speed="6.51" length="9.03" shape="-13.60,-508.00 -11.15,-508.35 -9.40,-509.40 -8.35,-511.15 -8.00,-513.60"/>
    </edge>
    <edge id=":TLS_13" function="internal">
        <lane id=":TLS_13_0" index="0" speed="13.89" length="27.20" shape="-13.60,-508.00 13.60,-508.00"/>
        <lane id=":TLS_13_1" index="1" speed="13.89" length="27.20" shape="-13.60,-504.80 13.60,-504.80"/>
    </edge>
    <edge id=":TLS_15" function="internal">
        <lane id=":TLS_15_0" index="0" speed="10.36" length="13.42" shape="-13.60,-501.60 -6.95,-500.65 -2.20,-497.80 -1.60,-496.80"/>
    </edge>
    <edge id=":TLS_19" function="internal">
        <lane id=":TLS_19_0" index="0" speed="10.36" length="11.09" shape="-1.60,-496.80 0.65,-493.05 1.60,-486.40"/>
    </edge>
    <edge id=":TLW_0" function="internal">
        <lane id=":TLW_0_0" index="0" speed="6.51" length="9.03" shape="-708.00,213.60 -708.35,211.15 -709.40,209.40 -711.15,208.35 -713.60,208.00"/>
    </edge>
    <edge id=":TLW_1" function="internal">
        <lane id=":TLW_1_0" index="0" speed="13.89" length="27.20" shape="-708.00,213.60 -708.00,186.40"/>
        <lane id=":TLW_1_1" index="1" speed="13.89" length="27.20" shape="-704.80,213.60 -704.80,186.40"/>
    </edge>
    <edge id=":TLW_3" function="internal">
        <lane id=":TLW_3_0" index="0" speed="10.36" length="13.42" shape="-701.60,213.60 -700.65,206.95 -697.80,202.20 -696.80,201.60"/>
    </edge>
    <edge id=":TLW_16" function="internal">
        <lane id=":TLW_16_0" index="0" speed="10.36" length="11.09" shape="-696.80,201.60 -693.05,199.35 -686.40,198.40"/>
    </edge>
    <edge id=":TLW_4" function="internal">
        <lane id=":TLW_4_0" index="0" speed="6.51" length="9.03" shape="-686.40,208.00 -688.85,208.35 -690.60,209.40 -691.65,211.15 -692.00,213.60"/>
    </edge>
    <edge id=":TLW_5" function="internal">
        <lane id=":TLW_5_0" index="0" speed="13.89" length="27.20" shape="-686.40,208.00 -713.60,208.00"/>
        <lane id=":TLW_5_1" index="1" speed="13.89" length="27.20" shape="-686.40,204.80 -713.60,204.80"/>
    </edge>
    <edge id=":TLW_7" function="internal">
        <lane id=":TLW_7_0" index="0" speed="10.36" length="13.42" shape="-686.40,201.60 -693.05,200.65 -697.80,197.80 -698.40,196.80"/>
    </edge>
    <edge id=":TLW_17" function="internal">
        <lane id=":TLW_17_0" index="0" speed="10.36" length="11.09" shape="-698.40,196.80 -700.65,193.05 -701.60,186.40"/>
    </edge>
    <edge id=":TLW_8" function="internal">
        <lane id=":TLW_8_0" index="0" speed="6.51" length="9.03" shape="-692.00,186.40 -691.65,188.85 -690.60,190.60 -688.85,191.65 -686.40,192.00"/>
    </edge>
    <edge id=":TLW_9" function="internal">
        <lane id=":TLW_9_0" index="0" speed="13.89" length="27.20" shape="-692.00,186.40 -692.00,213.60"/>
        <lane id=":TLW_9_1" index="1" speed="13.89" length="27.20" shape="-695.20,186.40 -695.20,213.60"/>
    </edge>
    <edge id=":TLW_11" function="internal">
        <lane id=":TLW_11_0" index="0" speed="10.36" length="13.42" shape="-698.40,186.40 -699.35,193.05 -702.20,197.80 -703.20,198.40"/>
    </edge>
    <edge id=":TLW_18" function="internal">
        <lane id=":TLW_18_0" index="0" speed="10.36" length="11.09" shape="-703.20,198.40 -706.95,200.65 -713.60,201.60"/>
    </edge>
    <edge id=":TLW_12" function="internal">
        <lane id=":TLW_12_0" index="0" speed="6.51" length="9.03" shape="-713.60,192.00 -711.15,191.65 -709.40,190.60 -708.35,188.85 -708.00,186.40"/>
    </edge>
    <edge id=":TLW_13" function="internal">
        <lane id=":TLW_13_0" index="0" speed="13.89" length="27.20" shape="-713.60,192.00 -686.40,192.00"/>
        <lane id=":TLW_13_1" index="1" speed="13.89" length="27.20" shape="-713.60,195.20 -686.40,195.20"/>
    </edge>
    <edge id=":TLW_15" function="internal">
        <lane id=":TLW_15_0" index="0" speed="10.36" length="13.42" shape="-713.60,198.40 -706.95,199.35 -702.20,202.20 -701.60,203.20"/>
    </edge>
    <edge id=":TLW_19" function="internal">
        <lane id=":TLW_19_0" index="0" speed="10.36" length="11.09" shape="-701.60,203.20 -699.35,206.95 -698.40,213.60"/>
    </edge>

    <edge id="E2TLE" from="gneJ7" to="TLE" priority="-1">
        <lane id="E2TLE_0" index="0" speed="13.89" length="586.40" shape="1300.00,208.00 713.60,208.00"/>
        <lane id="E2TLE_1" index="1" speed="13.89" length="586.40" shape="1300.00,204.80 713.60,204.80"/>
        <lane id="E2TLE_2" index="2" speed="13.89" length="586.40" shape="1300.00,201.60 713.60,201.60"/>
    </edge>
    <edge id="E2TLN" from="gneJ11" to="TLN" priority="-1">
        <lane id="E2TLN_0" index="0" speed="13.89" length="586.40" shape="600.00,908.00 13.60,908.00"/>
        <lane id="E2TLN_1" index="1" speed="13.89" length="586.40" shape="600.00,904.80 13.60,904.80"/>
        <lane id="E2TLN_2" index="2" speed="13.89" length="586.40" shape="600.00,901.60 13.60,901.60"/>
    </edge>
    <edge id="E2TLS" from="gneJ8" to="TLS" priority="-1">
        <lane id="E2TLS_0" index="0" speed="13.89" length="586.40" shape="600.00,-492.00 13.60,-492.00"/>
        <lane id="E2TLS_1" index="1" speed="13.89" length="586.40" shape="600.00,-495.20 13.60,-495.20"/>
        <lane id="E2TLS_2" index="2" speed="13.89" length="586.40" shape="600.00,-498.40 13.60,-498.40"/>
    </edge>
    <edge id="N2TLE" from="gneJ5" to="TLE" priority="-1">
        <lane id="N2TLE_0" index="0" speed="13.89" length="586.40" shape="692.00,800.00 692.00,213.60"/>
        <lane id="N2TLE_1" index="1" speed="13.89" length="586.40" shape="695.20,800.00 695.20,213.60"/>
        <lane id="N2TLE_2" index="2" speed="13.89" length="586.40" shape="698.40,800.00 698.40,213.60"/>
    </edge>
    <edge id="N2TLN" from="gneJ12" to="TLN" priority="-1">
        <lane id="N2TLN_0" index="0" speed="13.89" length="586.40" shape="-8.00,1500.00 -8.00,913.60"/>
        <lane id="N2TLN_1" index="1" speed="13.89" length="586.40" shape="-4.80,1500.00 -4.80,913.60"/>
        <lane id="N2TLN_2" index="2" speed="13.89" length="586.40" shape="-1.60,1500.00 -1.60,913.60"/>
    </edge>
    <edge id="N2TLW" from="gneJ14" to="TLW" priority="-1">
        <lane id="N2TLW_0" index="0" speed="13.89" length="586.40" shape="-708.00,800.00 -708.00,213.60"/>
        <lane id="N2TLW_1" index="1" speed="13.89" length="586.40" shape="-704.80,800.00 -704.80,213.60"/>
        <lane id="N2TLW_2" index="2" speed="13.89" length="586.40" shape="-701.60,800.00 -701.60,213.60"/>
    </edge>
    <edge id="S2TLE" from="gneJ6" to="TLE" priority="-1">
        <lane id="S2TLE_0" index="0" speed="13.89" length="586.40" shape="708.00,-400.00 708.00,186.40"/>
        <lane id="S2TLE_1" index="1" speed="13.89" length="586.40" shape="704.80,-400.00 704.80,186.40"/>
        <lane id="S2TLE_2" index="2" speed="13.89" length="586.40" shape="701.60,-400.00 701.60,186.40"/>
    </edge>
    <edge id="S2TLS" from="gneJ10" to="TLS" priority="-1">
        <lane id="S2TLS_0" index="0" speed="13.89" length="586.40" shape="8.00,-1100.00 8.00,-513.60"/>
        <lane id="S2TLS_1" index="1" speed="13.89" length="586.40" shape="4.80,-1100.00 4.80,-513.60"/>
        <lane id="S2TLS_2" index="2" speed="13.89" length="586.40" shape="1.60,-1100.00 1.60,-513.60"/>
    </edge>
    <edge id="S2TLW" from="gneJ15" to="TLW" priority="-1">
        <lane id="S2TLW_0" index="0" speed="13.89" length="586.40" shape="-692.00,-400.00 -692.00,186.40"/>
        <lane id="S2TLW_1" index="1" speed="13.89" length="586.40" shape="-695.20,-400.00 -695.20,186.40"/>
        <lane id="S2TLW_2" index="2" speed="13.89" length="586.40" shape="-698.40,-400.00 -698.40,186.40"/>
    </edge>
    <edge id="TLC2TLE" from="TLC" to="TLE" priority="-1">
        <lane id="TLC2TLE_0" index="0" speed="13.89" length="672.80" shape="13.60,192.00 686.40,192.00"/>
        <lane id="TLC2TLE_1" index="1" speed="13.89" length="672.80" shape="13.60,195.20 686.40,195.20"/>
        <lane id="TLC2TLE_2" index="2" speed="13.89" length="672.80" shape="13.60,198.40 686.40,198.40"/>
    </edge>
    <edge id="TLC2TLN" from="TLC" to="TLN" priority="-1">
        <lane id="TLC2TLN_0" index="0" speed="13.89" length="672.80" shape="8.00,213.60 8.00,886.40"/>
        <lane id="TLC2TLN_1" index="1" speed="13.89" length="672.80" shape="4.80,213.60 4.80,886.40"/>
        <lane id="TLC2TLN_2" index="2" speed="13.89" length="672.80" shape="1.60,213.60 1.60,886.40"/>
    </edge>
    <edge id="TLC2TLS" from="TLC" to="TLS" priority="-1">
        <lane id="TLC2TLS_0" index="0" speed="13.89" length="672.80" shape="-8.00,186.40 -8.00,-486.40"/>
        <lane id="TLC2TLS_1" index="1" speed="13.89" length="672.80" shape="-4.80,186.40 -4.80,-486.40"/>
        <lane id="TLC2TLS_2" index="2" speed="13.89" length="672.80" shape="-1.60,186.40 -1.60,-486.40"/>
    </edge>
    <edge id="TLC2TLW" from="TLC" to="TLW" priority="-1">
        <lane id="TLC2TLW_0" index="0" speed="13.89" length="672.80" shape="-13.60,208.00 -686.40,208.00"/>
        <lane id="TLC2TLW_1" index="1" speed="13.89" length="672.80" shape="-13.60,204.80 -686.40,204.80"/>
        <lane id="TLC2TLW_2" index="2" speed="13.89" length="672.80" shape="-13.60,201.60 -686.40,201.60"/>
    </edge>
    <edge id="TLE2E" from="TLE" to="gneJ7" priority="-1">
        <lane id="TLE2E_0" index="0" speed="13.89" length="586.40" shape="713.60,192.00 1300.00,192.00"/>
        <lane id="TLE2E_1" index="1" speed="13.89" length="586.40" shape="713.60,195.20 1300.00,195.20"/>
        <lane id="TLE2E_2" index="2" speed="13.89" length="586.40" shape="713.60,198.40 1300.00,198.40"/>
    </edge>
    <edge id="TLE2N" from="TLE" to="gneJ5" priority="-1">
        <lane id="TLE2N_0" index="0" speed="13.89" length="586.40" shape="708.00,213.60 708.00,800.00"/>
        <lane id="TLE2N_1" index="1" speed="13.89" length="586.40" shape="704.80,213.60 704.80,800.00"/>
        <lane id="TLE2N_2" index="2" speed="13.89" length="586.40" shape="701.60,213.60 701.60,800.00"/>
    </edge>
    <edge id="TLE2S" from="TLE" to="gneJ6" priority="-1">
        <lane id="TLE2S_0" index="0" speed="13.89" length="586.40" shape="692.00,186.40 692.00,-400.00"/>
        <lane id="TLE2S_1" index="1" speed="13.89" length="586.40" shape="695.20,186.40 695.20,-400.00"/>
        <lane id="TLE2S_2" index="2" speed="13.89" length="586.40" shape="698.40,186.40 698.40,-400.00"/>
    </edge>
    <edge id="TLE2TLC" from="TLE" to="TLC" priority="-1">
        <lane id="TLE2TLC_0" index="0" speed="13.89" length="672.80" shape="686.40,208.00 13.60,208.00"/>
        <lane id="TLE2TLC_1" index="1" speed="13.89" length="672.80" shape="686.40,204.80 13.60,204.80"/>
        <lane id="TLE2TLC_2" index="2" speed="13.89" length="672.80" shape="686.40,201.60 13.60,201.60"/>
    </edge>
    <edge id="TLN2E" from="TLN" to="gneJ11" priority="-1">
        <lane id="TLN2E_0" index="0" speed="13.89" length="586.40" shape="13.60,892.00 600.00,892.00"/>
        <lane id="TLN2E_1" index="1" speed="13.89" length="586.40" shape="13.60,895.20 600.00,895.20"/>
        <lane id="TLN2E_2" index="2" speed="13.89" length="586.40" shape="13.60,898.40 600.00,898.40"/>
    </edge>
    <edge id="TLN2N" from="TLN" to="gneJ12" priority="-1">
        <lane id="TLN2N_0" index="0" speed="13.89" length="586.40" shape="8.00,913.60 8.00,1500.00"/>
        <lane id="TLN2N_1" index="1" speed="13.89" length="586.40" shape="4.80,913.60 4.80,1500.00"/>
        <lane id="TLN2N_2" index="2" speed="13.89" length="586.40" shape="1.60,913.60 1.60,1500.00"/>
    </edge>
    <edge id="TLN2TLC" from="TLN" to="TLC" priority="-1">
        <lane id="TLN2TLC_0" index="0" speed="13.89" length="672.80" shape="-8.00,886.40 -8.00,213.60"/>
        <lane id="TLN2TLC_1" index="1" speed="13.89" length="672.80" shape="-4.80,886.40 -4.80,213.60"/>
        <lane id="TLN2TLC_2" index="2" speed="13.89" length="672.80" shape="-1.60,886.40 -1.60,213.60"/>
    </edge>
    <edge id="TLN2W" from="TLN" to="gneJ13" priority="-1">
        <lane id="TLN2W_0" index="0" speed="13.89" length="586.40" shape="-13.60,908.00 -600.00,908.00"/>
        <lane id="TLN2W_1" index="1" speed="13.89" length="586.40" shape="-13.60,904.80 -600.00,904.80"/>
        <lane id="TLN2W_2" index="2" speed="13.89" length="586.40" shape="-13.60,901.60 -600.00,901.60"/>
    </edge>
    <edge id="TLS2E" from="TLS" to="gneJ8" priority="-1">
        <lane id="TLS2E_0" index="0" speed="13.89" length="586.40" shape="13.60,-508.00 600.00,-508.00"/>
        <lane id="TLS2E_1" index="1" speed="13.89" length="586.40" shape="13.60,-504.80 600.00,-504.80"/>
        <lane id="TLS2E_2" index="2" speed="13.89" length="586.40" shape="13.60,-501.60 600.00,-501.60"/>
    </edge>
    <edge id="TLS2S" from="TLS" to="gneJ10" priority="-1">
        <lane id="TLS2S_0" index="0" speed="13.89" length="586.40" shape="-8.00,-513.60 -8.00,-1100.00"/>
        <lane id="TLS2S_1" index="1" speed="13.89" length="586.40" shape="-4.80,-513.60 -4.80,-1100.00"/>
        <lane id="TLS2S_2" index="2" speed="13.89" length="586.40" shape="-1.60,-513.60 -1.60,-1100.00"/>
    </edge>
    <edge id="TLS2TLC" from="TLS" to="TLC" priority="-1">
        <lane id="TLS2TLC_0" index="0" speed="13.89" length="672.80" shape="8.00,-486.40 8.00,186.40"/>
        <lane id="TLS2TLC_1" index="1" speed="13.89" length="672.80" shape="4.80,-486.40 4.80,186.40"/>
        <lane id="TLS2TLC_2" index="2" speed="13.89" length="672.80" shape="1.60,-486.40 1.60,186.40"/>
    </edge>
    <edge id="TLS2W" from="TLS" to="gneJ9" priority="-1">
        <lane id="TLS2W_0" index="0" speed="13.89" length="586.40" shape="-13.60,-492.00 -600.00,-492.00"/>
        <lane id="TLS2W_1" index="1" speed="13.89" length="586.40" shape="-13.60,-495.20 -600.00,-495.20"/>
        <lane id="TLS2W_2" index="2" speed="13.89" length="586.40" shape="-13.60,-498.40 -600.00,-498.40"/>
    </edge>
    <edge id="TLW2N" from="TLW" to="gneJ14" priority="-1">
        <lane id="TLW2N_0" index="0" speed="13.89" length="586.40" shape="-692.00,213.60 -692.00,800.00"/>
        <lane id="TLW2N_1" index="1" speed="13.89" length="586.40" shape="-695.20,213.60 -695.20,800.00"/>
        <lane id="TLW2N_2" index="2" speed="13.89" length="586.40" shape="-698.40,213.60 -698.40,800.00"/>
    </edge>
    <edge id="TLW2S" from="TLW" to="gneJ15" priority="-1">
        <lane id="TLW2S_0" index="0" speed="13.89" length="586.40" shape="-708.00,186.40 -708.00,-400.00"/>
        <lane id="TLW2S_1" index="1" speed="13.89" length="586.40" shape="-704.80,186.40 -704.80,-400.00"/>
        <lane id="TLW2S_2" index="2" speed="13.89" length="586.40" shape="-701.60,186.40 -701.60,-400.00"/>
    </edge>
    <edge id="TLW2TLC" from="TLW" to="TLC" priority="-1">
        <lane id="TLW2TLC_0" index="0" speed="13.89" length="672.80" shape="-686.40,192.00 -13.60,192.00"/>
        <lane id="TLW2TLC_1" index="1" speed="13.89" length="672.80" shape="-686.40,195.20 -13.60,195.20"/>
        <lane id="TLW2TLC_2" index="2" speed="13.89" length="672.80" shape="-686.40,198.40 -13.60,198.40"/>
    </edge>
    <edge id="TLW2W" from="TLW" to="gneJ16" priority="-1">
        <lane id="TLW2W_0" index="0" speed="13.89" length="586.40" shape="-713.60,208.00 -1300.00,208.00"/>
        <lane id="TLW2W_1" index="1" speed="13.89" length="586.40" shape="-713.60,204.80 -1300.00,204.80"/>
        <lane id="TLW2W_2" index="2" speed="13.89" length="586.40" shape="-713.60,201.60 -1300.00,201.60"/>
    </edge>
    <edge id="W2TLN" from="gneJ13" to="TLN" priority="-1">
        <lane id="W2TLN_0" index="0" speed="13.89" length="586.40" shape="-600.00,892.00 -13.60,892.00"/>
        <lane id="W2TLN_1" index="1" speed="13.89" length="586.40" shape="-600.00,895.20 -13.60,895.20"/>
        <lane id="W2TLN_2" index="2" speed="13.89" length="586.40" shape="-600.00,898.40 -13.60,898.40"/>
    </edge>
    <edge id="W2TLS" from="gneJ9" to="TLS" priority="-1">
        <lane id="W2TLS_0" index="0" speed="13.89" length="586.40" shape="-600.00,-508.00 -13.60,-508.00"/>