<routes>
            <vType accel="1.0" decel="4.5" id="standard_car" length="5.0" minGap="2.5" maxSpeed="25" sigma="0.5" />
<route id="N2TLC TLC2TLE TLE2S" edges="N2TLC TLC2TLE TLE2S"/>
<route id="N2TLE TLE2E" edges="N2TLE TLE2E"/>
<route id="S2TLW TLW2TLC TLC2S" edges="S2TLW TLW2TLC TLC2S"/>
<route id="N2TLE TLE2S" edges="N2TLE TLE2S"/>
<route id="E2TLE TLE2TLC TLC2TLW TLW2W" edges="E2TLE TLE2TLC TLC2TLW TLW2W"/>
<route id="S2TLE TLE2TLC TLC2TLW TLW2S" edges="S2TLE TLE2TLC TLC2TLW TLW2S"/>
<route id="S2TLW TLW2TLC TLC2TLE TLE2N" edges="S2TLW TLW2TLC TLC2TLE TLE2N"/>
<route id="S2TLE TLE2N" edges="S2TLE TLE2N"/>
<route id="S2TLE TLE2TLC TLC2TLW TLW2N" edges="S2TLE TLE2TLC TLC2TLW TLW2N"/>
<route id="S2TLC TLC2TLE TLE2N" edges="S2TLC TLC2TLE TLE2N"/>
<route id="W2TLW TLW2TLC TLC2N" edges="W2TLW TLW2TLC TLC2N"/>
<route id="E2TLE TLE2TLC TLC2TLW TLW2N" edges="E2TLE TLE2TLC TLC2TLW TLW2N"/>
<route id="W2TLW TLW2TLC TLC2TLE TLE2E" edges="W2TLW TLW2TLC TLC2TLE TLE2E"/>
<route id="S2TLE TLE2TLC TLC2S" edges="S2TLE TLE2TLC TLC2S"/>
<route id="S2TLC TLC2TLW TLW2S" edges="S2TLC TLC2TLW TLW2S"/>
<route id="N2TLW TLW2TLC TLC2TLE TLE2E" edges="N2TLW TLW2TLC TLC2TLE TLE2E"/>
<route id="N2TLC TLC2TLW TLW2S" edges="N2TLC TLC2TLW TLW2S"/>
<route id="E2TLE TLE2TLC TLC2TLW TLW2S" edges="E2TLE TLE2TLC TLC2TLW TLW2S"/>
<route id="S2TLE TLE2TLC TLC2TLW TLW2W" edges="S2TLE TLE2TLC TLC2TLW TLW2W"/>
<route id="N2TLE TLE2TLC TLC2N" edges="N2TLE TLE2TLC TLC2N"/>
<route id="N2TLE TLE2TLC TLC2TLW TLW2S" edges="N2TLE TLE2TLC TLC2TLW TLW2S"/>
<route id="W2TLW TLW2TLC TLC2TLE TLE2N" edges="W2TLW TLW2TLC TLC2TLE TLE2N"/>
<route id="N2TLW TLW2TLC TLC2TLE TLE2S" edges="N2TLW TLW2TLC TLC2TLE TLE2S"/>
<route id="N2TLW TLW2W" edges="N2TLW TLW2W"/>
<route id="W2TLW TLW2TLC TLC2TLE TLE2S" edges="W2TLW TLW2TLC TLC2TLE TLE2S"/>
<route id="N2TLW TLW2S" edges="N2TLW TLW2S"/>
<route id="N2TLE TLE2TLC TLC2TLW TLW2W" edges="N2TLE TLE2TLC TLC2TLW TLW2W"/>
<route id="S2TLE TLE2TLC TLC2N" edges="S2TLE TLE2TLC TLC2N"/>
<route id="E2TLE TLE2N" edges="E2TLE TLE2N"/>
<route id="S2TLW TLW2TLC TLC2TLE TLE2S" edges="S2TLW TLW2TLC TLC2TLE TLE2S"/>
<route id="N2TLW TLW2TLC TLC2TLE TLE2N" edges="N2TLW TLW2TLC TLC2TLE TLE2N"/>
<route id="N2TLC TLC2TLW TLW2N" edges="N2TLC TLC2TLW TLW2N"/>
<route id="N2TLC TLC2S" edges="N2TLC TLC2S"/>
<route id="N2TLE TLE2TLC TLC2TLW TLW2N" edges="N2TLE TLE2TLC TLC2TLW TLW2N"/>
<route id="S2TLC TLC2TLW TLW2W" edges="S2TLC TLC2TLW TLW2W"/>
<route id="S2TLW TLW2TLC TLC2TLE TLE2E" edges="S2TLW TLW2TLC TLC2TLE TLE2E"/>
<route id="S2TLC TLC2TLW TLW2N" edges="S2TLC TLC2TLW TLW2N"/>
<route id="W2TLW TLW2TLC TLC2S" edges="W2TLW TLW2TLC TLC2S"/>
<route id="S2TLW TLW2W" edges="S2TLW TLW2W"/>
<route id="N2TLC TLC2TLE TLE2N" edges="N2TLC TLC2TLE TLE2N"/>
<route id="S2TLC TLC2N" edges="S2TLC TLC2N"/>
<route id="S2TLC TLC2TLE TLE2E" edges="S2TLC TLC2TLE TLE2E"/>
<route id="N2TLW TLW2TLC TLC2S" edges="N2TLW TLW2TLC TLC2S"/>
<route id="W2TLW TLW2N" edges="W2TLW TLW2N"/>
<route id="S2TLE TLE2E" edges="S2TLE TLE2E"/>
<route id="N2TLW TLW2TLC TLC2N" edges="N2TLW TLW2TLC TLC2N"/>
<route id="S2TLC TLC2TLE TLE2S" edges="S2TLC TLC2TLE TLE2S"/>
<route id="N2TLC TLC2TLE TLE2E" edges="N2TLC TLC2TLE TLE2E"/>
<route id="W2TLW TLW2S" edges="W2TLW TLW2S"/>
<route id="S2TLW TLW2N" edges="S2TLW TLW2N"/>
<route id="N2TLE TLE2TLC TLC2S" edges="N2TLE TLE2TLC TLC2S"/>
<route id="E2TLE TLE2S" edges="E2TLE TLE2S"/>
<route id="E2TLE TLE2TLC TLC2N" edges="E2TLE TLE2TLC TLC2N"/>
<route id="E2TLE TLE2TLC TLC2S" edges="E2TLE TLE2TLC TLC2S"/>
<route id="N2TLC TLC2TLW TLW2W" edges="N2TLC TLC2TLW TLW2W"/>
<route id="S2TLW TLW2TLC TLC2N" edges="S2TLW TLW2TLC TLC2N"/>
    <vehicle id="vehicle_0" type="standard_car" route='S2TLW TLW2TLC TLC2N' depart="11.0" departLane="random" departSpeed="10"/>
    <vehicle id="vehicle_1" type="standard_car" route='W2TLW TLW2TLC TLC2TLE TLE2N' depart="26.0" departLane="random" departSpeed="10"/>
    <vehicle id="vehicle_2" type="standard_car" route='N2TLW TLW2TLC TLC2TLE TLE2E' depart="43.0" departLane="random" departSpeed="10"/>
    <vehicle id="vehicle_3" type="standard_car" route='S2TLW TLW2N' depart="63.0" departLane="random" departSpeed="10"/>
    <vehicle id="vehicle_4" type="standard_car" route='S2TLC TLC2TLE TLE2E' depart="63.0" departLane="random" departSpeed="10"/>
    <vehicle id="vehicle_5" type="standard_car" route='S2TLW TLW2N' depart="70.0" departLane="random" departSpeed="10"/>
    <vehicle id="vehicle_6" type="standard_car" route='S2TLW TLW2N' depart="71.0" departLane="random" departSpeed="10"/>
    <vehicle id="vehicle_7" type="standard_car" route='S2TLE TLE2N' depart="72.0" departLane="random" departSpeed="10"/>
    <vehicle id="vehicle_8" type="standard_car" route='S2TLC TLC2N' depart="90.0" departLane="random" departSpeed="10"/>
    <vehicle id="vehicle_9" type="standard_car" route='E2TLE TLE2TLC TLC2TLW TLW2W' depart="92.0" departLane="random" departSpeed="10"/>
    <vehicle id="vehicle_10" type="standard_car" route='S2TLC TLC2N' depart="101.0" departLane="random" departSpeed="10"/>
    <vehicle id="vehicle_11" type="standard_car" route='N2TLE TLE2S' depart="109.0" departLane="random" departSpeed="10"/>
    <vehicle id="vehicle_12" type="standard_car" route='W2TLW TLW2S' depart="112.0" departLane="random" departSpeed="10"/>
    <vehicle id="vehicle_13" type="standard_car" route='N2TLE TLE2S' depart="116.0" departLane="random" departSpeed="10"/>
    <vehicle id="vehicle_14" type="standard_car" route='S2TLC TLC2N' depart="122.0" departLane="random" departSpeed="10"/>
    <vehicle id="vehicle_15" type="standard_car" route='N2TLW TLW2S' depart="132.0" departLane="random" departSpeed="10"/>
    <vehicle id="vehicle_16" type="standard_car" route='S2TLE TLE2N' depart="134.0" departLane="random" departSpeed="10"/>
    <vehicle id="vehicle_17" type="standard_car" route='S2TLW TLW2N' depart="135.0" departLane="random" departSpeed="10"/>
    <vehicle id="vehicle_18" type="standard_car" route='N2TLE TLE2E' depart="135.0" departLane="random" departSpeed="10"/>
    <vehicle id="vehicle_19" type="standard_car" route='W2TLW TLW2TLC TLC2S' depart="141.0" departLane="random" departSpeed="10"/>
    <vehicle id="vehicle_20" type="standard_car" route='N2TLW TLW2TLC TLC2S' depart="146.0" departLane="random" departSpeed="10"/>
    <vehicle id="vehicle_21" type="standard_car" route='S2TLE TLE2N' depart="148.0" departLane="random" departSpeed="10"/>
    <vehicle id="vehicle_22" type="standard_car" route='E2TLE TLE2TLC TLC2TLW TLW2W' depart="153.0" departLane="random" departSpeed="10"/>
    <vehicle id="vehicle_23" type="standard_car" route='S2TLC TLC2N' depart="160.0" departLane="random" departSpeed="10"/>
    <vehicle id="vehicle_24" type="standard_car" route='S2TLC TLC2N' depart="161.0" departLane="random" departSpeed="10"/>
    <vehicle id="vehicle_25" type="standard_car" route='S2TLC TLC2TLE TLE2E' depart="161.0" departLane="random" departSpeed="10"/>
    <vehicle id="vehicle_26" type="standard_car" route='S2TLC TLC2N' depart="171.0" departLane="random" departSpeed="10"/>
    <vehicle id="vehicle_27" type="standard_car" route='S2TLE TLE2N' depart="172.0" departLane="random" departSpeed="10"/>
    <vehicle id="vehicle_28" type="standard_car" route='N2TLC TLC2TLW TLW2W' depart="172.0" departLane="random" departSpeed="10"/>
    <vehicle id="vehicle_29" type="standard_car" route='W2TLW TLW2TLC TLC2S' depart="178.0" departLane="random" departSpeed="10"/>
    <vehicle id="vehicle_30" type="standard_car" route='N2TLE TLE2S' depart="178.0" departLane="random" departSpeed="10"/>
    <vehicle id="vehicle_31" type="standard_car" route='E2TLE TLE2TLC TLC2TLW TLW2W' depart="179.0" departLane="random" departSpeed="10"/>
    <vehicle id="vehicle_32" type="standard_car" route='N2TLE TLE2S' depart="181.0" departLane="random" departSpeed="10"/>
    <vehicle id="vehicle_33" type="standard_car" route='E2TLE TLE2TLC TLC2TLW TLW2W' depart="181.0" departLane="random" departSpeed="10"/>
    <vehicle id="vehicle_34" type="standard_car" route='N2TLE TLE2S' depart="190.0" departLane="random" departSpeed="10"/>
    <vehicle id="vehicle_35" type="standard_car" route='E2TLE TLE2S' depart="193.0" departLane="random" departSpeed="10"/>
    <vehicle id="vehicle_36" type="standard_car" route='N2TLC TLC2S' depart="194.0" departLane="random" departSpeed="10"/>
    <vehicle id="vehicle_37" type="standard_car" route='N2TLE TLE2S' depart="197.0" departLane="random" departSpeed="10"/>
    <vehicle id="vehicle_38" type="standard_car" route='N2TLE TLE2S' depart="197.0" departLane="random" departSpeed="10"/>
    <vehicle id="vehicle_39" type="standard_car" route='N2TLC TLC2TLE TLE2E' depart="198.0" departLane="random" departSpeed="10"/>
    <vehicle id="vehicle_40" type="standard_car" route='S2TLC TLC2N' depart="210.0" departLane="random" departSpeed="10"/>
    <vehicle id="vehicle_41" type="standard_car" route='E2TLE TLE2TLC TLC2TLW TLW2W' depart="211.0" departLane="random" departSpeed="10"/>
    <vehicle id="vehicle_42" type="standard_car" route='N2TLE TLE2S' depart="215.0" departLane="random" departSpeed="10"/>
    <vehicle id="vehicle_43" type="standard_car" route='N2TLW TLW2S' depart="216.0" departLane="random" departSpeed="10"/>
    <vehicle id="vehicle_44" type="standard_car" route='N2TLW TLW2S' depart="220.0" departLane="random" departSpeed="10"/>
    <vehicle id="vehicle_45" type="standard_car" route='N2TLC TLC2S' depart="222.0" departLane="random" departSpeed="10"/>
    <vehicle id="vehicle_46" type="standard_car" route='S2TLW TLW2N' depart="223.0" departLane="random" departSpeed="10"/>
    <vehicle id="vehicle_47" type="standard_car" route='S2TLE TLE2E' depart="224.0" departLane="random" departSpeed="10"/>
    <vehicle id="vehicle_48" type="standard_car" route='N2TLC TLC2TLW TLW2S' depart="228.0" departLane="random" departSpeed="10"/>
    <vehicle id="vehicle_49" type="standard_car" route='N2TLC TLC2S' depart="234.0" departLane="random" departSpeed="10"/>
    <vehicle id="vehicle_50" type="standard_car" route='N2TLW TLW2S' depart="236.0" departLane="random" departSpeed="10"/>
    <vehicle id="vehicle_51" type="standard_car" route='S2TLC TLC2N' depart="236.0" departLane="random" departSpeed="10"/>
    <vehicle id="vehicle_52" type="standard_car" route='N2TLC TLC2S' depart="239.0" departLane="random" departSpeed="10"/>
    <vehicle id="vehicle_53" type="standard_car" route='W2TLW TLW2TLC TLC2TLE TLE2E' depart="239.0" departLane="random" departSpeed="10"/>
    <vehicle id="vehicle_54" type="standard_car" route='W2TLW TLW2TLC TLC2TLE TLE2E' depart="242.0" departLane="random" departSpeed="10"/>
    <vehicle id="vehicle_55" type="standard_car" route='S2TLE TLE2N' depart="242.0" departLane="random" departSpeed="10"/>
    <vehicle id="vehicle_56" type="standard_car" route='W2TLW TLW2N' depart="247.0" departLane="random" departSpeed="10"/>
    <vehicle id="vehicle_57" type="standard_car" route='S2TLC TLC2N' depart="248.0" departLane="random" departSpeed="10"/>
    <vehicle id="vehicle_58" type="standard_car" route='S2TLW TLW2N' depart="251.0" departLane="random" departSpeed="10"/>
    <vehicle id="vehicle_59" type="standard_car" route='S2TLE TLE2N' depart="251.0" departLane="random" departSpeed="10"/>
    <vehicle id="vehicle_60" type="standard_car" route='S2TLE TLE2N' depart="252.0" departLane="random" departSpeed="10"/>
    <vehicle id="vehicle_61" type="standard_car" route='S2TLE TLE2N' depart="252.0" departLane="random" departSpeed="10"/>
    <vehicle id="vehicle_62" type="standard_car" route='S2TLW TLW2TLC TLC2TLE TLE2E' depart="252.0" departLane="random" departSpeed="10"/>
    <vehicle id="vehicle_63" type="standard_car" route='S2TLW TLW2N' depart="255.0" departLane="random" departSpeed="10"/>
    <vehicle id="vehicle_64" type="standard_car" route='E2TLE TLE2TLC TLC2TLW TLW2W' depart="256.0" departLane="random" departSpeed="10"/>
    <vehicle id="vehicle_65" type="standard_car" route='W2TLW TLW2TLC TLC2TLE TLE2E' depart="261.0" departLane="random" departSpeed="10"/>
    <vehicle id="vehicle_66" type="standard_car" route='N2TLE TLE2S' depart="262.0" departLane="random" departSpeed="10"/>
    <vehicle id="vehicle_67" type="standard_car" route='N2TLE TLE2S' depart="265.0" departLane="random" departSpeed="10"/>
    <vehicle id="vehicle_68" type="standard_car" route='W2TLW TLW2TLC TLC2TLE TLE2E' depart="265.0" departLane="random" departSpeed="10"/>
    <vehicle id="vehicle_69" type="standard_car" route='N2TLC TLC2S' depart="268.0" departLane="random" departSpeed="10"/>
    <vehicle id="vehicle_70" type="standard_car" route='N2TLW TLW2S' depart="269.0" departLane="random" departSpeed="10"/>
    <vehicle id="vehicle_71" type="standard_car" route='N2TLC TLC2TLW TLW2W' depart="272.0" departLane="random" departSpeed="10"/>
    <vehicle id="vehicle_72" type="standard_car" route='S2TLE TLE2E' depart="272.0" departLane="random" departSpeed="10"/>
    <vehicle id="vehicle_73" type="standard_car" route='S2TLE TLE2TLC TLC2TLW TLW2W' depart="273.0" departLane="random" departSpeed="10"/>
    <vehicle id="vehicle_74" type="standard_car" route='N2TLE TLE2S' depart="279.0" departLane="random" departSpeed="10"/>
    <vehicle id="vehicle_75" type="standard_car" route='S2TLC TLC2N' depart="281.0" departLane="random" departSpeed="10"/>
    <vehicle id="vehicle_76" type="standard_car" route='N2TLC TLC2TLE TLE2E' depart="282.0" departLane="random" departSpeed="10"/>
    <vehicle id="vehicle_77" type="standard_car" route='E2TLE TLE2S' depart="285.0" departLane="random" departSpeed="10"/>
    <vehicle id="vehicle_78" type="standard_car" route='S2TLW TLW2W' depart="286.0" departLane="random" departSpeed="10"/>
    <vehicle id="vehicle_79" type="standard_car" route='N2TLC TLC2TLW TLW2W' depart="287.0" departLane="random" departSpeed="10"/>
    <vehicle id="vehicle_80" type="standard_car" route='S2TLW TLW2N' depart="289.0" departLane="random" departSpeed="10"/>
    <vehicle id="vehicle_81" type="standard_car" route='N2TLE TLE2TLC TLC2TLW TLW2W' depart="289.0" departLane="random" departSpeed="10"/>
    <vehicle id="vehicle_82" type="standard_car" route='S2TLC TLC2N' depart="290.0" departLane="random" departSpeed="10"/>
    <vehicle id="vehicle_83" type="standard_car" route='W2TLW TLW2TLC TLC2S' depart="291.0" departLane="random" departSpeed="10"/>
    <vehicle id="vehicle_84" type="standard_car" route='N2TLC TLC2S' depart="292.0" departLane="random" departSpeed="10"/>
    <vehicle id="vehicle_85" type="standard_car" route='S2TLC TLC2N' depart="294.0" departLane="random" departSpeed="10"/>
    <vehicle id="vehicle_86" type="standard_car" route='W2TLW TLW2TLC TLC2TLE TLE2E' depart="299.0" departLane="random" departSpeed="10"/>
    <vehicle id="vehicle_87" type="standard_car" route='N2TLC TLC2S' depart="299.0" departLane="random" departSpeed="10"/>
    <vehicle id="vehicle_88" type="standard_car" route='W2TLW TLW2TLC TLC2N' depart="300.0" departLane="random" departSpeed="10"/>
    <vehicle id="vehicle_89" type="standard_car" route='S2TLE TLE2E' depart="300.0" departLane="random" departSpeed="10"/>
    <vehicle id="vehicle_90" type="standard_car" route='N2TLW TLW2TLC TLC2TLE TLE2E' depart="306.0" departLane="random" departSpeed="10"/>
    <vehicle id="vehicle_91" type="standard_car" route='N2TLW TLW2S' depart="306.0" departLane="random" departSpeed="10"/>
    <vehicle id="vehicle_92" type="standard_car" route='N2TLC TLC2TLW TLW2W' depart="311.0" departLane="random" departSpeed="10"/>
    <vehicle id="vehicle_93" type="standard_car" route='S2TLW TLW2W' depart="317.0" departLane="random" departSpeed="10"/>
    <vehicle id="vehicle_94" type="standard_car" route='W2TLW TLW2TLC TLC2TLE TLE2N' depart="318.0" departLane="random" departSpeed="10"/>
    <vehicle id="vehicle_95" type="standard_car" route='N2TLC TLC2S' depart="319.0" departLane="random" departSpeed="10"/>
    <vehicle id="vehicle_96" type="standard_car" route='E2TLE TLE2N' depart="320.0" departLane="random" departSpeed="10"/>
    <vehicle id="vehicle_97" type="standard_car" route='S2TLE TLE2N' depart="321.0" departLane="random" departSpeed="10"/>
    <vehicle id="vehicle_98" type="standard_car" route='S2TLC TLC2TLW TLW2W' depart="324.0" departLane="random" departSpeed="10"/>
    <vehicle id="vehicle_99" type="standard_car" route='N2TLW TLW2S' depart="324.0" departLane="random" departSpeed="10"/>
    <vehicle id="vehicle_100" type="standard_car" route='S2TLW TLW2TLC TLC2TLE TLE2E' depart="326.0" departLane="random" departSpeed="10"/>
    <vehicle id="vehicle_101" type="standard_car" route='E2TLE TLE2TLC TLC2S' depart="328.0" departLane="random" departSpeed="10"/>
    <vehicle id="vehicle_102" type="standard_car" route='N2TLW TLW2S' depart="332.0" departLane="random" departSpeed="10"/>
    <vehicle id="vehicle_103" type="standard_car" route='W2TLW TLW2N' depart="332.0" departLane="random" departSpeed="10"/>
    <vehicle id="vehicle_104" type="standard_car" route='S2TLC TLC2N' depart="333.0" departLane="random" departSpeed="10"/>
    <vehicle id="vehicle_105" type="standard_car" route='S2TLE TLE2N' depart="338.0" departLane="random" departSpeed="10"/>
    <vehicle id="vehicle_106" type="standard_car" route='W2TLW TLW2N' depart="339.0" departLane="random" departSpeed="10"/>
    <vehicle id="vehicle_107" type="standard_car" route='S2TLW TLW2N' depart="339.0" departLane="random" departSpeed="10"/>
    <vehicle id="vehicle_108" type="standard_car" route='S2TLW TLW2W' depart="339.0" departLane="random" departSpeed="10"/>
    <vehicle id="vehicle_109" type="standard_car" route='W2TLW TLW2TLC TLC2TLE TLE2E' depart="347.0" departLane="random" departSpeed="10"/>
    <vehicle id="vehicle_110" type="standard_car" route='S2TLE TLE2N' depart="348.0" departLane="random" departSpeed="10"/>
    <vehicle id="vehicle_111" type="standard_car" route='W2TLW TLW2TLC TLC2TLE TLE2E' depart="353.0" departLane="random" departSpeed="10"/>
    <vehicle id="vehicle_112" type="standard_car" route='N2TLW TLW2W' depart="355.0" departLane="random" departSpeed="10"/>
    <vehicle id="vehicle_113" type="standard_car" route='N2TLC TLC2S' depart="357.0" departLane="random" departSpeed="10"/>
    <vehicle id="vehicle_114" type="standard_car" route='S2TLW TLW2W' depart="357.0" departLane="random" departSpeed="10"/>
    <vehicle id="vehicle_115" type="standard_car" route='W2TLW TLW2TLC TLC2TLE TLE2E' depart="357.0" departLane="random" departSpeed="10"/>
    <vehicle id="vehicle_116" type="standard_car" route='W2TLW TLW2TLC TLC2TLE TLE2S' depart="359.0" departLane="random" departSpeed="10"/>
    <vehicle id="vehicle_117" type="standard_car" route='S2TLW TLW2TLC TLC2TLE TLE2E' depart="362.0" departLane="random" departSpeed="10"/>
    <vehicle id="vehicle_118" type="standard_car" route='W2TLW TLW2N' depart="363.0" departLane="random" departSpeed="10"/>
    <vehicle id="vehicle_119" type="standard_car" route='N2TLE TLE2TLC TLC2TLW TLW2W' depart="366.0" departLane="random" departSpeed="10"/>
    <vehicle id="vehicle_120" type="standard_car" route='S2TLW TLW2W' depart="367.0" departLane="random" departSpeed="10"/>
    <vehicle id="vehicle_121" type="standard_car" route='E2TLE TLE2TLC TLC2TLW TLW2W' depart="369.0" departLane="random" departSpeed="10"/>
    <vehicle id="vehicle_122" type="standard_car" route='S2TLW TLW2TLC TLC2TLE TLE2S' depart="369.0" departLane="random" departSpeed="10"/>
    <vehicle id="vehicle_123" type="standard_car" route='S2TLE TLE2TLC TLC2N' depart="370.0" departLane="random" departSpeed="10"/>
    <vehicle id="vehicle_124" type="standard_car" route='S2TLW TLW2N' depart="371.0" departLane="random" departSpeed="10"/>
    <vehicle id="vehicle_125" type="standard_car" route='N2TLW TLW2S' depart="372.0" departLane="random" departSpeed="10"/>
    <vehicle id="vehicle_126" type="standard_car" route='S2TLC TLC2N' depart="372.0" departLane="random" departSpeed="10"/>
    <vehicle id="vehicle_127" type="standard_car" route='N2TLC TLC2S' depart="372.0" departLane="random" departSpeed="10"/>
    <vehicle id="vehicle_128" type="standard_car" route='N2TLE TLE2S' depart="372.0" departLane="random" departSpeed="10"/>
    <vehicle id="vehicle_129" type="standard_car" route='W2TLW TLW2TLC TLC2TLE TLE2E' depart="375.0" departLane="random" departSpeed="10"/>
    <vehicle id="vehicle_130" type="standard_car" route='W2TLW TLW2N' depart="376.0" departLane="random" departSpeed="10"/>
    <vehicle id="vehicle_131" type="standard_car" route='N2TLC TLC2TLW TLW2W' depart="376.0" departLane="random" departSpeed="10"/>
    <vehicle id="vehicle_132" type="standard_car" route='E2TLE TLE2TLC TLC2S' depart="377.0" departLane="random" departSpeed="10"/>
    <vehicle id="vehicle_133" type="standard_car" route='S2TLC TLC2N' depart="378.0" departLane="random" departSpeed="10"/>
    <vehicle id="vehicle_134" type="standard_car" route='S2TLE TLE2N' depart="378.0" departLane="random" departSpeed="10"/>
    <vehicle id="vehicle_135" type="standard_car" route='S2TLC TLC2TLW TLW2W' depart="380.0" departLane="random" departSpeed="10"/>
    <vehicle id="vehicle_136" type="standard_car" route='E2TLE TLE2TLC TLC2N' depart="386.0" departLane="random" departSpeed="10"/>
    <vehicle id="vehicle_137" type="standard_car" route='N2TLW TLW2S' depart="388.0" departLane="random" departSpeed="10"/>
    <vehicle id="vehicle_138" type="standard_car" route='N2TLW TLW2TLC TLC2TLE TLE2N' depart="388.0" departLane="random" departSpeed="10"/>
    <vehicle id="vehicle_139" type="standard_car" route='N2TLC TLC2S' depart="389.0" departLane="random" departSpeed="10"/>
    <vehicle id="vehicle_140" type="standard_car" route='S2TLC TLC2N' depart="389.0" departLane="random" departSpeed="10"/>
    <vehicle id="vehicle_141" type="standard_car" route='E2TLE TLE2N' depart="390.0" departLane="random" departSpeed="10"/>
    <vehicle id="vehicle_142" type="standard_car" route='N2TLE TLE2S' depart="391.0" departLane="random" departSpeed="10"/>
    <vehicle id="vehicle_143" type="standard_car" route='E2TLE TLE2TLC TLC2N' depart="396.0" departLane="random" departSpeed="10"/>
    <vehicle id="vehicle_144" type="standard_car" route='S2TLE TLE2N' depart="400.0" departLane="random" departSpeed="10"/>
    <vehicle id="vehicle_145" type="standard_car" route='E2TLE TLE2TLC TLC2S' depart="400.0" departLane="random" departSpeed="10"/>
    <vehicle id="vehicle_146" type="standard_car" route='N2TLE TLE2S' depart="400.0" departLane="random" departSpeed="10"/>
    <vehicle id="vehicle_147" type="standard_car" route='W2TLW TLW2N' depart="403.0" departLane="random" departSpeed="10"/>
    <vehicle id="vehicle_148" type="standard_car" route='W2TLW TLW2TLC TLC2S' depart="403.0" departLane="random" departSpeed="10"/>
    <vehicle id="vehicle_149" type="standard_car" route='S2TLC TLC2N' depart="403.0" departLane="random" departSpeed="10"/>
    <vehicle id="vehicle_150" type="standard_car" route='N2TLC TLC2TLE TLE2S' depart="409.0" departLane="random" departSpeed="10"/>
    <vehicle id="vehicle_151" type="standard_car" route='N2TLC TLC2S' depart="410.0" departLane="random" departSpeed="10"/>
    <vehicle id="vehicle_152" type="standard_car" route='N2TLC TLC2TLW TLW2W' depart="411.0" departLane="random" departSpeed="10"/>
    <vehicle id="vehicle_153" type="standard_car" route='N2TLW TLW2S' depart="413.0" departLane="random" departSpeed="10"/>
    <vehicle id="vehicle_154" type="standard_car" route='W2TLW TLW2TLC TLC2TLE TLE2N' depart="414.0" departLane="random" departSpeed="10"/>
    <vehicle id="vehicle_155" type="standard_car" route='S2TLW TLW2N' depart="415.0" departLane="random" departSpeed="10"/>
    <vehicle id="vehicle_156" type="standard_car" route='S2TLW TLW2N' depart="416.0" departLane="random" departSpeed="10"/>
    <vehicle id="vehicle_157" type="standard_car" route='W2TLW TLW2TLC TLC2TLE TLE2E' depart="416.0" departLane="random" departSpeed="10"/>
    <vehicle id="vehicle_158" type="standard_car" route='S2TLE TLE2N' depart="418.0" departLane="random" departSpeed="10"/>
    <vehicle id="vehicle_159" type="standard_car" route='N2TLE TLE2S' depart="418.0" departLane="random" departSpeed="10"/>
    <vehicle id="vehicle_160" type="standard_car" route='N2TLC TLC2S' depart="418.0" departLane="random" departSpeed="10"/>
    <vehicle id="vehicle_161" type="standard_car" route='W2TLW TLW2TLC TLC2TLE TLE2E' depart="421.0" departLane="random" departSpeed="10"/>
    <vehicle id="vehicle_162" type="standard_car" route='N2TLE TLE2S' depart="422.0" departLane="random" departSpeed="10"/>
    <vehicle id="vehicle_163" type="standard_car" route='N2TLW TLW2W' depart="422.0" departLane="random" departSpeed="10"/>
    <vehicle id="vehicle_164" type="standard_car" route='S2TLC TLC2N' depart="423.0" departLane="random" departSpeed="10"/>
    <vehicle id="vehicle_165" type="standard_car" route='N2TLE TLE2S' depart="423.0" departLane="random" departSpeed="10"/>
    <vehicle id="vehicle_166" type="standard_car" route='E2TLE TLE2TLC TLC2TLW TLW2W' depart="424.0" departLane="random" departSpeed="10"/>
    <vehicle id="vehicle_167" type="standard_car" route='N2TLC TLC2S' depart="426.0" departLane="random" departSpeed="10"/>
    <vehicle id="vehicle_168" type="standard_car" route='E2TLE TLE2TLC TLC2TLW TLW2W' depart="427.0" departLane="random" departSpeed="10"/>
    <vehicle id="vehicle_169" type="standard_car" route='N2TLE TLE2S' depart="427.0" departLane="random" departSpeed="10"/>
    <vehicle id="vehicle_170" type="standard_car" route='S2TLC TLC2TLW TLW2N' depart="427.0" departLane="random" departSpeed="10"/>
    <vehicle id="vehicle_171" type="standard_car" route='S2TLE TLE2N' depart="428.0" departLane="random" departSpeed="10"/>
    <vehicle id="vehicle_172" type="standard_car" route='S2TLC TLC2N' depart="428.0" departLane="random" departSpeed="10"/>
    <vehicle id="vehicle_173" type="standard_car" route='N2TLW TLW2S' depart="429.0" departLane="random" departSpeed="10"/>
    <vehicle id="vehicle_174" type="standard_car" route='W2TLW TLW2N' depart="429.0" departLane="random" departSpeed="10"/>
    <vehicle id="vehicle_175" type="standard_car" route='N2TLW TLW2S' depart="431.0" departLane="random" departSpeed="10"/>
    <vehicle id="vehicle_176" type="standard_car" route='N2TLW TLW2S' depart="431.0" departLane="random" departSpeed="10"/>
    <vehicle id="vehicle_177" type="standard_car" route='S2TLW TLW2N' depart="435.0" departLane="random" departSpeed="10"/>
    <vehicle id="vehicle_178" type="standard_car" route='E2TLE TLE2TLC TLC2TLW TLW2N' depart="435.0" departLane="random" departSpeed="10"/>
    <vehicle id="vehicle_179" type="standard_car" route='S2TLE TLE2N' depart="436.0" departLane="random" departSpeed="10"/>
    <vehicle id="vehicle_180" type="standard_car" route='E2TLE TLE2TLC TLC2TLW TLW2W' depart="440.0" departLane="random" departSpeed="10"/>
    <vehicle id="vehicle_181" type="standard_car" route='S2TLW TLW2N' depart="440.0" departLane="random" departSpeed="10"/>
    <vehicle id="vehicle_182" type="standard_car" route='E2TLE TLE2TLC TLC2S' depart="441.0" departLane="random" departSpeed="10"/>
    <vehicle id="vehicle_183" type="standard_car" route='S2TLE TLE2TLC TLC2TLW TLW2W' depart="442.0" departLane="random" departSpeed="10"/>
    <vehicle id="vehicle_184" type="standard_car" route='S2TLC TLC2N' depart="443.0" departLane="random" departSpeed="10"/>
    <vehicle id="vehicle_185" type="standard_car" route='S2TLW TLW2TLC TLC2TLE TLE2E' depart="443.0" departLane="random" departSpeed="10"/>
    <vehicle id="vehicle_186" type="standard_car" route='N2TLC TLC2S' depart="443.0" departLane="random" departSpeed="10"/>
    <vehicle id="vehicle_187" type="standard_car" route='N2TLC TLC2S' depart="445.0" departLane="random" departSpeed="10"/>
    <vehicle id="vehicle_188" type="standard_car" route='S2TLE TLE2N' depart="445.0" departLane="random" departSpeed="10"/>
    <vehicle id="vehicle_189" type="standard_car" route='S2TLC TLC2N' depart="448.0" departLane="random" departSpeed="10"/>
    <vehicle id="vehicle_190" type="standard_car" route='N2TLW TLW2TLC TLC2TLE TLE2E' depart="449.0" departLane="random" departSpeed="10"/>
    <vehicle id="vehicle_191" type="standard_car" route='S2TLE TLE2N' depart="452.0" departLane="random" departSpeed="10"/>
    <vehicle id="vehicle_192" type="standard_car" route='N2TLE TLE2S' depart="452.0" departLane="random" departSpeed="10"/>
    <vehicle id="vehicle_193" type="standard_car" route='E2TLE TLE2TLC TLC2TLW TLW2W' depart="456.0" departLane="random" departSpeed="10"/>
    <vehicle id="vehicle_194" type="standard_car" route='E2TLE TLE2TLC TLC2TLW TLW2W' depart="457.0" departLane="random" departSpeed="10"/>
    <vehicle id="vehicle_195" type="standard_car" route='S2TLW TLW2N' depart="457.0" departLane="random" departSpeed="10"/>
    <vehicle id="vehicle_196" type="standard_car" route='N2TLC TLC2S' depart="458.0" departLane="random" departSpeed="10"/>
    <vehicle id="vehicle_197" type="standard_car" route='E2TLE TLE2TLC TLC2TLW TLW2W' depart="458.0" departLane="random" departSpeed="10"/>
    <vehicle id="vehicle_198" type="standard_car" route='N2TLC TLC2S' depart="459.0" departLane="random" departSpeed="10"/>
    <vehicle id="vehicle_199" type="standard_car" route='S2TLW TLW2N' depart="461.0" departLane="random" departSpeed="10"/>
    <vehicle id="vehicle_200" type="standard_car" route='N2TLW TLW2S' depart="461.0" departLane="random" departSpeed="10"/>
    <vehicle id="vehicle_201" type="standard_car" route='S2TLC TLC2N' depart="462.0" departLane="random" departSpeed="10"/>
    <vehicle id="vehicle_202" type="standard_car" route='N2TLE TLE2S' depart="463.0" departLane="random" departSpeed="10"/>
    <vehicle id="vehicle_203" type="standard_car" route='S2TLW TLW2N' depart="464.0" departLane="random" departSpeed="10"/>
    <vehicle id="vehicle_204" type="standard_car" route='N2TLW TLW2S' depart="464.0" departLane="random" departSpeed="10"/>
    <vehicle id="vehicle_205" type="standard_car" route='N2TLE TLE2S' depart="465.0" departLane="random" departSpeed="10"/>