<routes>
            <vType accel="1.0" decel="4.5" id="standard_car" length="5.0" minGap="2.5" maxSpeed="25" sigma="0.5" />

            <route id="W_N" edges="W2TL TL2N"/>
            <route id="W_E" edges="W2TL TL2E"/>
            <route id="W_S" edges="W2TL TL2S"/>
            <route id="N_W" edges="N2TL TL2W"/>
            <route id="N_E" edges="N2TL TL2E"/>
            <route id="N_S" edges="N2TL TL2S"/>
            <route id="E_W" edges="E2TL TL2W"/>
            <route id="E_N" edges="E2TL TL2N"/>
            <route id="E_S" edges="E2TL TL2S"/>
            <route id="S_W" edges="S2TL TL2W"/>
            <route id="S_N" edges="S2TL TL2N"/>
            <route id="S_E" edges="S2TL TL2E"/>
    <vehicle id="N_S_0" type="standard_car" route="N_S" depart="73.0" departLane="random" departSpeed="10" />
    <vehicle id="W_S_1" type="standard_car" route="W_S" depart="78.0" departLane="random" departSpeed="10" />
    <vehicle id="S_N_2" type="standard_car" route="S_N" depart="112.0" departLane="random" departSpeed="10" />
    <vehicle id="N_S_3" type="standard_car" route="N_S" depart="124.0" departLane="random" departSpeed="10" />
    <vehicle id="S_N_4" type="standard_car" route="S_N" depart="130.0" departLane="random" departSpeed="10" />
    <vehicle id="E_W_5" type="standard_car" route="E_W" depart="141.0" departLane="random" departSpeed="10" />
    <vehicle id="N_S_6" type="standard_car" route="N_S" depart="144.0" departLane="random" departSpeed="10" />
    <vehicle id="N_E_7" type="standard_car" route="N_E" depart="146.0" departLane="random" departSpeed="10" />
    <vehicle id="E_W_8" type="standard_car" route="E_W" depart="158.0" departLane="random" departSpeed="10" />
    <vehicle id="W_E_9" type="standard_car" route="W_E" depart="162.0" departLane="random" departSpeed="10" />
    <vehicle id="S_E_10" type="standard_car" route="S_E" depart="169.0" departLane="random" departSpeed="10" />
    <vehicle id="N_S_11" type="standard_car" route="N_S" depart="170.0" departLane="random" departSpeed="10" />
    <vehicle id="W_E_12" type="standard_car" route="W_E" depart="184.0" departLane="random" departSpeed="10" />
    <vehicle id="N_W_13" type="standard_car" route="N_W" depart="186.0" departLane="random" departSpeed="10" />
    <vehicle id="N_S_14" type="standard_car" route="N_S" depart="188.0" departLane="random" departSpeed="10" />
    <vehicle id="S_N_15" type="standard_car" route="S_N" depart="193.0" departLane="random" departSpeed="10" />
    <vehicle id="W_S_16" type="standard_car" route="W_S" depart="198.0" departLane="random" departSpeed="10" />
    <vehicle id="E_W_17" type="standard_car" route="E_W" depart="210.0" departLane="random" departSpeed="10" />
    <vehicle id="N_S_18" type="standard_car" route="N_S" depart="221.0" departLane="random" departSpeed="10" />
    <vehicle id="S_N_19" type="standard_car" route="S_N" depart="221.0" departLane="random" departSpeed="10" />
    <vehicle id="E_W_20" type="standard_car" route="E_W" depart="222.0" departLane="random" departSpeed="10" />
    <vehicle id="E_W_21" type="standard_car" route="E_W" depart="239.0" departLane="random" departSpeed="10" />
    <vehicle id="W_E_22" type="standard_car" route="W_E" depart="276.0" departLane="random" departSpeed="10" />
    <vehicle id="N_S_23" type="standard_car" route="N_S" depart="297.0" departLane="random" departSpeed="10" />
    <vehicle id="E_N_24" type="standard_car" route="E_N" depart="300.0" departLane="random" departSpeed="10" />
    <vehicle id="S_N_25" type="standard_car" route="S_N" depart="310.0" departLane="random" departSpeed="10" />
    <vehicle id="W_E_26" type="standard_car" route="W_E" depart="311.0" departLane="random" departSpeed="10" />
    <vehicle id="E_W_27" type="standard_car" route="E_W" depart="321.0" departLane="random" departSpeed="10" />
    <vehicle id="N_S_28" type="standard_car" route="N_S" depart="321.0" departLane="random" departSpeed="10" />
    <vehicle id="E_S_29" type="standard_car" route="E_S" depart="332.0" departLane="random" departSpeed="10" />
    <vehicle id="E_W_30" type="standard_car" route="E_W" depart="337.0" departLane="random" departSpeed="10" />
    <vehicle id="E_W_31" type="standard_car" route="E_W" depart="339.0" departLane="random" departSpeed="10" />
    <vehicle id="S_N_32" type="standard_car" route="S_N" depart="339.0" departLane="random" departSpeed="10" />
    <vehicle id="E_W_33" type="standard_car" route="E_W" depart="342.0" departLane="random" departSpeed="10" />
    <vehicle id="S_E_34" type="standard_car" route="S_E" depart="359.0" departLane="random" departSpeed="10" />
    <vehicle id="E_W_35" type="standard_car" route="E_W" depart="361.0" departLane="random" departSpeed="10" />
    <vehicle id="N_S_36" type="standard_car" route="N_S" depart="375.0" departLane="random" departSpeed="10" />
    <vehicle id="S_N_37" type="standard_car" route="S_N" depart="377.0" departLane="random" departSpeed="10" />
    <vehicle id="E_S_38" type="standard_car" route="E_S" depart="378.0" departLane="random" departSpeed="10" />
    <vehicle id="N_S_39" type="standard_car" route="N_S" depart="383.0" departLane="random" departSpeed="10" />
    <vehicle id="N_S_40" type="standard_car" route="N_S" depart="384.0" departLane="random" departSpeed="10" />
    <vehicle id="W_N_41" type="standard_car" route="W_N" depart="389.0" departLane="random" departSpeed="10" />
    <vehicle id="E_W_42" type="standard_car" route="E_W" depart="403.0" departLane="random" departSpeed="10" />
    <vehicle id="W_E_43" type="standard_car" route="W_E" depart="409.0" departLane="random" departSpeed="10" />
    <vehicle id="E_W_44" type="standard_car" route="E_W" depart="414.0" departLane="random" departSpeed="10" />
    <vehicle id="W_E_45" type="standard_car" route="W_E" depart="415.0" departLane="random" departSpeed="10" />
    <vehicle id="W_E_46" type="standard_car" route="W_E" depart="418.0" departLane="random" departSpeed="10" />
    <vehicle id="N_S_47" type="standard_car" route="N_S" depart="424.0" departLane="random" departSpeed="10" />
    <vehicle id="S_N_48" type="standard_car" route="S_N" depart="434.0" departLane="random" departSpeed="10" />
    <vehicle id="N_S_49" type="standard_car" route="N_S" depart="435.0" departLane="random" departSpeed="10" />
    <vehicle id="S_W_50" type="standard_car" route="S_W" depart="437.0" departLane="random" departSpeed="10" />
    <vehicle id="W_E_51" type="standard_car" route="W_E" depart="439.0" departLane="random" departSpeed="10" />
    <vehicle id="N_S_52" type="standard_car" route="N_S" depart="447.0" departLane="random" departSpeed="10" />
    <vehicle id="S_N_53" type="standard_car" route="S_N" depart="450.0" departLane="random" departSpeed="10" />
    <vehicle id="W_N_54" type="standard_car" route="W_N" depart="453.0" departLane="random" departSpeed="10" />
    <vehicle id="W_E_55" type="standard_car" route="W_E" depart="460.0" departLane="random" departSpeed="10" />
    <vehicle id="W_E_56" type="standard_car" route="W_E" depart="460.0" departLane="random" departSpeed="10" />
    <vehicle id="S_N_57" type="standard_car" route="S_N" depart="461.0" departLane="random" departSpeed="10" />
    <vehicle id="S_N_58" type="standard_car" route="S_N" depart="466.0" departLane="random" departSpeed="10" />
    <vehicle id="E_W_59" type="standard_car" route="E_W" depart="474.0" departLane="random" departSpeed="10" />
    <vehicle id="W_E_60" type="standard_car" route="W_E" depart="478.0" departLane="random" departSpeed="10" />
    <vehicle id="N_S_61" type="standard_car" route="N_S" depart="485.0" departLane="random" departSpeed="10" />
    <vehicle id="S_N_62" type="standard_car" route="S_N" depart="486.0" departLane="random" departSpeed="10" />
    <vehicle id="N_S_63" type="standard_car" route="N_S" depart="489.0" departLane="random" departSpeed="10" />
    <vehicle id="N_S_64" type="standard_car" route="N_S" depart="493.0" departLane="random" departSpeed="10" />
    <vehicle id="E_W_65" type="standard_car" route="E_W" depart="498.0" departLane="random" departSpeed="10" />
    <vehicle id="E_W_66" type="standard_car" route="E_W" depart="499.0" departLane="random" departSpeed="10" />
    <vehicle id="S_N_67" type="standard_car" route="S_N" depart="504.0" departLane="random" departSpeed="10" />
    <vehicle id="E_W_68" type="standard_car" route="E_W" depart="508.0" departLane="random" departSpeed="10" />
    <vehicle id="N_S_69" type="standard_car" route="N_S" depart="515.0" departLane="random" departSpeed="10" />
    <vehicle id="W_E_70" type="standard_car" route="W_E" depart="516.0" departLane="random" departSpeed="10" />
    <vehicle id="N_S_71" type="standard_car" route="N_S" depart="522.0" departLane="random" departSpeed="10" />
    <vehicle id="W_E_72" type="standard_car" route="W_E" depart="524.0" departLane="random" departSpeed="10" />
    <vehicle id="E_W_73" type="standard_car" route="E_W" depart="524.0" departLane="random" departSpeed="10" />
    <vehicle id="W_E_74" type="standard_car" route="W_E" depart="527.0" departLane="random" departSpeed="10" />
    <vehicle id="S_N_75" type="standard_car" route="S_N" depart="527.0" departLane="random" departSpeed="10" />
    <vehicle id="N_S_76" type="standard_car" route="N_S" depart="529.0" departLane="random" departSpeed="10" />
    <vehicle id="S_N_77" type="standard_car" route="S_N" depart="530.0" departLane="random" departSpeed="10" />
    <vehicle id="S_N_78" type="standard_car" route="S_N" depart="531.0" departLane="random" departSpeed="10" />
    <vehicle id="N_S_79" type="standard_car" route="N_S" depart="532.0" departLane="random" departSpeed="10" />
    <vehicle id="N_E_80" type="standard_car" route="N_E" depart="541.0" departLane="random" departSpeed="10" />
    <vehicle id="N_W_81" type="standard_car" route="N_W" depart="543.0" departLane="random" departSpeed="10" />
    <vehicle id="W_E_82" type="standard_car" route="W_E" depart="543.0" departLane="random" departSpeed="10" />
    <vehicle id="E_W_83" type="standard_car" route="E_W" depart="550.0" departLane="random" departSpeed="10" />
    <vehicle id="E_W_84" type="standard_car" route="E_W" depart="551.0" departLane="random" departSpeed="10" />
    <vehicle id="E_W_85" type="standard_car" route="E_W" depart="552.0" departLane="random" departSpeed="10" />
    <vehicle id="N_E_86" type="standard_car" route="N_E" depart="554.0" departLane="random" departSpeed="10" />
    <vehicle id="W_E_87" type="standard_car" route="W_E" depart="555.0" departLane="random" departSpeed="10" />
    <vehicle id="E_W_88" type="standard_car" route="E_W" depart="556.0" departLane="random" departSpeed="10" />
    <vehicle id="W_S_89" type="standard_car" route="W_S" depart="557.0" departLane="random" departSpeed="10" />
    <vehicle id="W_S_90" type="standard_car" route="W_S" depart="558.0" departLane="random" departSpeed="10" />
    <vehicle id="N_E_91" type="standard_car" route="N_E" depart="561.0" departLane="random" departSpeed="10" />
    <vehicle id="N_S_92" type="standard_car" route="N_S" depart="561.0" departLane="random" departSpeed="10" />
    <vehicle id="W_E_93" type="standard_car" route="W_E" depart="563.0" departLane="random" departSpeed="10" />
    <vehicle id="E_N_94" type="standard_car" route="E_N" depart="571.0" departLane="random" departSpeed="10" />
    <vehicle id="S_E_95" type="standard_car" route="S_E" depart="575.0" departLane="random" departSpeed="10" />
    <vehicle id="W_E_96" type="standard_car" route="W_E" depart="575.0" departLane="random" departSpeed="10" />
    <vehicle id="W_E_97" type="standard_car" route="W_E" depart="577.0" departLane="random" departSpeed="10" />
    <vehicle id="W_E_98" type="standard_car" route="W_E" depart="579.0" departLane="random" departSpeed="10" />
    <vehicle id="S_N_99" type="standard_car" route="S_N" depart="579.0" departLane="random" departSpeed="10" />
    <vehicle id="N_E_100" type="standard_car" route="N_E" depart="583.0" departLane="random" departSpeed="10" />
    <vehicle id="N_S_101" type="standard_car" route="N_S" depart="588.0" departLane="random" departSpeed="10" />
    <vehicle id="E_W_102" type="standard_car" route="E_W" depart="588.0" departLane="random" departSpeed="10" />
    <vehicle id="N_W_103" type="standard_car" route="N_W" depart="590.0" departLane="random" departSpeed="10" />
    <vehicle id="N_S_104" type="standard_car" route="N_S" depart="593.0" departLane="random" departSpeed="10" />
    <vehicle id="E_W_105" type="standard_car" route="E_W" depart="600.0" departLane="random" departSpeed="10" />
    <vehicle id="W_E_106" type="standard_car" route="W_E" depart="600.0" departLane="random" departSpeed="10" />
    <vehicle id="S_N_107" type="standard_car" route="S_N" depart="604.0" departLane="random" departSpeed="10" />
    <vehicle id="W_E_108" type="standard_car" route="W_E" depart="604.0" departLane="random" departSpeed="10" />
    <vehicle id="S_N_109" type="standard_car" route="S_N" depart="606.0" departLane="random" departSpeed="10" />
    <vehicle id="E_W_110" type="standard_car" route="E_W" depart="613.0" departLane="random" departSpeed="10" />
    <vehicle id="S_E_111" type="standard_car" route="S_E" depart="614.0" departLane="random" departSpeed="10" />
    <vehicle id="E_W_112" type="standard_car" route="E_W" depart="615.0" departLane="random" departSpeed="10" />
    <vehicle id="E_W_113" type="standard_car" route="E_W" depart="621.0" departLane="random" departSpeed="10" />
    <vehicle id="N_W_114" type="standard_car" route="N_W" depart="622.0" departLane="random" departSpeed="10" />
    <vehicle id="N_S_115" type="standard_car" route="N_S" depart="623.0" departLane="random" departSpeed="10" />
    <vehicle id="W_E_116" type="standard_car" route="W_E" depart="625.0" departLane="random" departSpeed="10" />
    <vehicle id="E_W_117" type="standard_car" route="E_W" depart="625.0" departLane="random" departSpeed="10" />
    <vehicle id="W_E_118" type="standard_car" route="W_E" depart="628.0" departLane="random" departSpeed="10" />
    <vehicle id="E_W_119" type="standard_car" route="E_W" depart="634.0" departLane="random" departSpeed="10" />
    <vehicle id="N_E_120" type="standard_car" route="N_E" depart="634.0" departLane="random" departSpeed="10" />
    <vehicle id="W_N_121" type="standard_car" route="W_N" depart="636.0" departLane="random" departSpeed="10" />
    <vehicle id="N_S_122" type="standard_car" route="N_S" depart="641.0" departLane="random" departSpeed="10" />
    <vehicle id="S_N_123" type="standard_car" route="S_N" depart="646.0" departLane="random" departSpeed="10" />
    <vehicle id="W_N_124" type="standard_car" route="W_N" depart="646.0" departLane="random" departSpeed="10" />
    <vehicle id="S_E_125" type="standard_car" route="S_E" depart="647.0" departLane="random" departSpeed="10" />
    <vehicle id="E_W_126" type="standard_car" route="E_W" depart="647.0" departLane="random" departSpeed="10" />
    <vehicle id="W_E_127" type="standard_car" route="W_E" depart="654.0" departLane="random" departSpeed="10" />
    <vehicle id="S_N_128" type="standard_car" route="S_N" depart="657.0" departLane="random" departSpeed="10" />
    <vehicle id="E_W_129" type="standard_car" route="E_W" depart="660.0" departLane="random" departSpeed="10" />
    <vehicle id="E_W_130" type="standard_car" route="E_W" depart="661.0" departLane="random" departSpeed="10" />
    <vehicle id="W_E_131" type="standard_car" route="W_E" depart="664.0" departLane="random" departSpeed="10" />
    <vehicle id="W_E_132" type="standard_car" route="W_E" depart="665.0" departLane="random" departSpeed="10" />
    <vehicle id="S_N_133" type="standard_car" route="S_N" depart="666.0" departLane="random" departSpeed="10" />
    <vehicle id="N_S_134" type="standard_car" route="N_S" depart="667.0" departLane="random" departSpeed="10" />
    <vehicle id="N_S_135" type="standard_car" route="N_S" depart="668.0" departLane="random" departSpeed="10" />
    <vehicle id="S_N_136" type="standard_car" route="S_N" depart="673.0" departLane="random" departSpeed="10" />
    <vehicle id="N_S_137" type="standard_car" route="N_S" depart="674.0" departLane="random" departSpeed="10" />
    <vehicle id="S_E_138" type="standard_car" route="S_E" depart="675.0" departLane="random" departSpeed="10" />
    <vehicle id="E_N_139" type="standard_car" route="E_N" depart="683.0" departLane="random" departSpeed="10" />
    <vehicle id="W_E_140" type="standard_car" route="W_E" depart="684.0" departLane="random" departSpeed="10" />
    <vehicle id="S_N_141" type="standard_car" route="S_N" depart="687.0" departLane="random" departSpeed="10" />
    <vehicle id="N_E_142" type="standard_car" route="N_E" depart="694.0" departLane="random" departSpeed="10" />
    <vehicle id="E_S_143" type="standard_car" route="E_S" depart="694.0" departLane="random" departSpeed="10" />
    <vehicle id="W_N_144" type="standard_car" route="W_N" depart="697.0" departLane="random" departSpeed="10" />
    <vehicle id="N_S_145" type="standard_car" route="N_S" depart="700.0" departLane="random" departSpeed="10" />
    <vehicle id="S_N_146" type="standard_car" route="S_N" depart="705.0" departLane="random" departSpeed="10" />
    <vehicle id="S_N_147" type="standard_car" route="S_N" depart="709.0" departLane="random" departSpeed="10" />
    <vehicle id="N_S_148" type="standard_car" route="N_S" depart="720.0" departLane="random" departSpeed="10" />
    <vehicle id="W_E_149" type="standard_car" route="W_E" depart="722.0" departLane="random" departSpeed="10" />
    <vehicle id="N_E_150" type="standard_car" route="N_E" depart="725.0" departLane="random" departSpeed="10" />
    <vehicle id="W_N_151" type="standard_car" route="W_N" depart="728.0" departLane="random" departSpeed="10" />
    <vehicle id="N_S_152" type="standard_car" route="N_S" depart="729.0" departLane="random" departSpeed="10" />
    <vehicle id="W_S_153" type="standard_car" route="W_S" depart="731.0" departLane="random" departSpeed="10" />
    <vehicle id="S_E_154" type="standard_car" route="S_E" depart="731.0" departLane="random" departSpeed="10" />
    <vehicle id="N_S_155" type="standard_car" route="N_S" depart="731.0" departLane="random" departSpeed="10" />
    <vehicle id="E_W_156" type="standard_car" route="E_W" depart="733.0" departLane="random" departSpeed="10" />
    <vehicle id="S_W_157" type="standard_car" route="S_W" depart="734.0" departLane="random" departSpeed="10" />
    <vehicle id="S_W_158" type="standard_car" route="S_W" depart="736.0" departLane="random" departSpeed="10" />
    <vehicle id="N_W_159" type="standard_car" route="N_W" depart="741.0" departLane="random" departSpeed="10" />
    <vehicle id="N_W_160" type="standard_car" route="N_W" depart="744.0" departLane="random" departSpeed="10" />
    <vehicle id="S_N_161" type="standard_car" route="S_N" depart="750.0" departLane="random" departSpeed="10" />
    <vehicle id="N_W_162" type="standard_car" route="N_W" depart="751.0" departLane="random" departSpeed="10" />
    <vehicle id="S_E_163" type="standard_car" route="S_E" depart="754.0" departLane="random" departSpeed="10" />
    <vehicle id="S_N_164" type="standard_car" route="S_N" depart="757.0" departLane="random" departSpeed="10" />
    <vehicle id="E_N_165" type="standard_car" route="E_N" depart="757.0" departLane="random" departSpeed="10" />
    <vehicle id="W_E_166" type="standard_car" route="W_E" depart="759.0" departLane="random" departSpeed="10" />
    <vehicle id="W_E_167" type="standard_car" route="W_E" depart="760.0" departLane="random" departSpeed="10" />
    <vehicle id="W_E_168" type="standard_car" route="W_E" depart="762.0" departLane="random" departSpeed="10" />
    <vehicle id="E_W_169" type="standard_car" route="E_W" depart="764.0" departLane="random" departSpeed="10" />
    <vehicle id="E_W_170" type="standard_car" route="E_W" depart="764.0" departLane="random" departSpeed="10" />
    <vehicle id="N_E_171" type="standard_car" route="N_E" depart="766.0" departLane="random" departSpeed="10" />
    <vehicle id="E_W_172" type="standard_car" route="E_W" depart="771.0" departLane="random" departSpeed="10" />
    <vehicle id="N_W_173" type="standard_car" route="N_W" depart="777.0" departLane="random" departSpeed="10" />
    <vehicle id="E_W_174" type="standard_car" route="E_W" depart="777.0" departLane="random" departSpeed="10" />
    <vehicle id="E_S_175" type="standard_car" route="E_S" depart="784.0" departLane="random" departSpeed="10" />
    <vehicle id="E_N_176" type="standard_car" route="E_N" depart="787.0" departLane="random" departSpeed="10" />
    <vehicle id="W_E_177" type="standard_car" route="W_E" depart="789.0" departLane="random" departSpeed="10" />
    <vehicle id="S_N_178" type="standard_car" route="S_N" depart="789.0" departLane="random" departSpeed="10" />
    <vehicle id="W_E_179" type="standard_car" route="W_E" depart="794.0" departLane="random" departSpeed="10" />
    <vehicle id="S_E_180" type="standard_car" route="S_E" depart="797.0" departLane="random" departSpeed="10" />
    <vehicle id="N_S_181" type="standard_car" route="N_S" depart="798.0" departLane="random" departSpeed="10" />
    <vehicle id="W_E_182" type="standard_car" route="W_E" depart="799.0" departLane="random" departSpeed="10" />
    <vehicle id="W_E_183" type="standard_car" route="W_E" depart="800.0" departLane="random" departSpeed="10" />
    <vehicle id="S_W_184" type="standard_car" route="S_W" depart="801.0" departLane="random" departSpeed="10" />
    <vehicle id="S_W_185" type="standard_car" route="S_W" depart="803.0" departLane="random" departSpeed="10" />
    <vehicle id="S_N_186" type="standard_car" route="S_N" depart="807.0" departLane="random" departSpeed="10" />
    <vehicle id="N_W_187" type="standard_car" route="N_W" depart="808.0" departLane="random" departSpeed="10" />
    <vehicle id="W_E_188" type="standard_car" route="W_E" depart="808.0" departLane="random" departSpeed="10" />
    <vehicle id="S_N_189" type="standard_car" route="S_N" depart="811.0" departLane="random" departSpeed="10" />
    <vehicle id="E_W_190" type="standard_car" route="E_W" depart="811.0" departLane="random" departSpeed="10" />
    <vehicle id="E_W_191" type="standard_car" route="E_W" depart="812.0" departLane="random" departSpeed="10" />
    <vehicle id="N_S_192" type="standard_car" route="N_S" depart="814.0" departLane="random" departSpeed="10" />
    <vehicle id="W_N_193" type="standard_car" route="W_N" depart="815.0" departLane="random" departSpeed="10" />
    <vehicle id="W_E_194" type="standard_car" route="W_E" depart="820.0" departLane="random" departSpeed="10" />
    <vehicle id="W_E_195" type="standard_car" route="W_E" depart="822.0" departLane="random" departSpeed="10" />
    <vehicle id="W_E_196" type="standard_car" route="W_E" depart="822.0" departLane="random" departSpeed="10" />
    <vehicle id="W_E_197" type="standard_car" route="W_E" depart="823.0" departLane="random" departSpeed="10" />
    <vehicle id="S_N_198" type="standard_car" route="S_N" depart="827.0" departLane="random" departSpeed="10" />
    <vehicle id="E_N_199" type="standard_car" route="E_N" depart="827.0" departLane="random" departSpeed="10" />
    <vehicle id="E_W_200" type="standard_car" route="E_W" depart="830.0" departLane="random" departSpeed="10" />
    <vehicle id="E_W_201" type="standard_car" route="E_W" depart="830.0" departLane="random" departSpeed="10" />
    <vehicle id="S_N_202" type="standard_car" route="S_N" depart="833.0" departLane="random" departSpeed="10" />
    <vehicle id="E_N_203" type="standard_car" route="E_N" depart="833.0" departLane="random" departSpeed="10" />
    <vehicle id="E_W_204" type="standard_car" route="E_W" depart="833.0" departLane="random" departSpeed="10" />
    <vehicle id="N_S_205" type="standard_car" route="N_S" depart="837.0" departLane="random" departSpeed="10" />
    <vehicle id="E_W_206" type="standard_car" route="E_W" depart="838.0" departLane="random" departSpeed="10" />
    <vehicle id="N_E_207" type="standard_car" route="N_E" depart="840.0" departLane="random" departSpeed="10" />
    <vehicle id="S_N_208" type="standard_car" route="S_N" depart="842.0" departLane="random" departSpeed="10" />
    <vehicle id="W_E_209" type="standard_car" route="W_E" depart="844.0" departLane="random" departSpeed="10" />
    <vehicle id="E_W_210" type="standard_car" route="E_W" depart="850.0" departLane="random" departSpeed="10" />
    <vehicle id="W_E_211" type="standard_car" route="W_E" depart="850.0" departLane="random" departSpeed="10" />
    <vehicle id="S_N_212" type="standard_car" route="S_N" depart="851.0" departLane="random" departSpeed="10" />
    <vehicle id="W_N_213" type="standard_car" route="W_N" depart="853.0" departLane="random" departSpeed="10" />
    <vehicle id="W_E_214" type="standard_car" route="W_E" depart="855.0" departLane="random" departSpeed="10" />
    <vehicle id="N_S_215" type="standard_car" route="N_S" depart="857.0" departLane="random" departSpeed="10" />
    <vehicle id="S_N_216" type="standard_car" route="S_N" depart="857.0" departLane="random" departSpeed="10" />
    <vehicle id="S_N_217" type="standard_car" route="S_N" depart="859.0" departLane="random" departSpeed="10" />
    <vehicle id="E_S_218" type="standard_car" route="E_S" depart="864.0" departLane="random" departSpeed="10" />
    <vehicle id="S_N_219" type="standard_car" route="S_N" depart="864.0" departLane="random" departSpeed="10" />
    <vehicle id="N_E_220" type="standard_car" route="N_E" depart="867.0" departLane="random" departSpeed="10" />
    <vehicle id="W_E_221" type="standard_car" route="W_E" depart="868.0" departLane="random" departSpeed="10" />
    <vehicle id="E_W_222" type="standard_car" route="E_W" depart="873.0" departLane="random" departSpeed="10" />
    <vehicle id="W_E_223" type="standard_car" route="W_E" depart="873.0" departLane="random" departSpeed="10" />
    <vehicle id="N_W_224" type="standard_car" route="N_W" depart="875.0" departLane="random" departSpeed="10" />
    <vehicle id="E_W_225" type="standard_car" route="E_W" depart="875.0" departLane="random" departSpeed="10" />
    <vehicle id="N_S_226" type="standard_car" route="N_S" depart="880.0" departLane="random" departSpeed="10" />
    <vehicle id="E_W_227" type="standard_car" route="E_W" depart="882.0" departLane="random" departSpeed="10" />
    <vehicle id="N_S_228" type="standard_car" route="N_S" depart="885.0" departLane="random" departSpeed="10" />
    <vehicle id="W_E_229" type="standard_car" route="W_E" depart="886.0" departLane="random" departSpeed="10" />
    <vehicle id="W_E_230" type="standard_car" route="W_E" depart="887.0" departLane="random" departSpeed="10" />
    <vehicle id="S_N_231" type="standard_car" route="S_N" depart="887.0" departLane="random" departSpeed="10" />
    <vehicle id="E_W_232" type="standard_car" route="E_W" depart="888.0" departLane="random" departSpeed="10" />
    <vehicle id="E_N_233" type="standard_car" route="E_N" depart="890.0" departLane="random" departSpeed="10" />
    <vehicle id="N_S_234" type="standard_car" route="N_S" depart="891.0" departLane="random" departSpeed="10" />
    <vehicle id="S_N_235" type="standard_car" route="S_N" depart="892.0" departLane="random" departSpeed="10" />
    <vehicle id="W_E_236" type="standard_car" route="W_E" depart="894.0" departLane="random" departSpeed="10" />
    <vehicle id="E_W_237" type="standard_car" route="E_W" depart="902.0" departLane="random" departSpeed="10" />
    <vehicle id="S_N_238" type="standard_car" route="S_N" depart="903.0" departLane="random" departSpeed="10" />
    <vehicle id="E_W_239" type="standard_car" route="E_W" depart="904.0" departLane="random" departSpeed="10" />
    <vehicle id="S_N_240" type="standard_car" route="S_N" depart="907.0" departLane="random" departSpeed="10" />
    <vehicle id="E_W_241" type="standard_car" route="E_W" depart="909.0" departLane="random" departSpeed="10" />
    <vehicle id="S_N_242" type="standard_car" route="S_N" depart="916.0" departLane="random" departSpeed="10" />
    <vehicle id="N_S_243" type="standard_car" route="N_S" depart="919.0" departLane="random" departSpeed="10" />
    <vehicle id="W_E_244" type="standard_car" route="W_E" depart="919.0" departLane="random" departSpeed="10" />
    <vehicle id="S_N_245" type="standard_car" route="S_N" depart="921.0" departLane="random" departSpeed="10" />
    <vehicle id="W_E_246" type="standard_car" route="W_E" depart="923.0" departLane="random" departSpeed="10" />
    <vehicle id="N_S_247" type="standard_car" route="N_S" depart="925.0" departLane="random" departSpeed="10" />
    <vehicle id="S_N_248" type="standard_car" route="S_N" depart="929.0" departLane="random" departSpeed="10" />
    <vehicle id="W_E_249" type="standard_car" route="W_E" depart="929.0" departLane="random" departSpeed="10" />
    <vehicle id="N_S_250" type="standard_car" route="N_S" depart="930.0" departLane="random" departSpeed="10" />
    <vehicle id="E_S_251" type="standard_car" route="E_S" depart="930.0" departLane="random" departSpeed="10" />
    <vehicle id="S_N_252" type="standard_car" route="S_N" depart="933.0" departLane="random" departSpeed="10" />
    <vehicle id="E_W_253" type="standard_car" route="E_W" depart="934.0" departLane="random" departSpeed="10" />
    <vehicle id="S_N_254" type="standard_car" route="S_N" depart="934.0" departLane="random" departSpeed="10" />
    <vehicle id="W_E_255" type="standard_car" route="W_E" depart="938.0" departLane="random" departSpeed="10" />
    <vehicle id="E_W_256" type="standard_car" route="E_W" depart="939.0" departLane="random" departSpeed="10" />
    <vehicle id="E_S_257" type="standard_car" route="E_S" depart="940.0" departLane="random" departSpeed="10" />
    <vehicle id="W_E_258" type="standard_car" route="W_E" depart="946.0" departLane="random" departSpeed="10" />
    <vehicle id="E_S_259" type="standard_car" route="E_S" depart="947.0" departLane="random" departSpeed="10" />