<routes>
            <vType accel="1.0" decel="4.5" id="standard_car" length="5.0" minGap="2.5" maxSpeed="25" sigma="0.5" />
<route id="W2TLW TLW2TLC TLC2N" edges="W2TLW TLW2TLC TLC2N"/>
<route id="S2TLC TLC2TLW TLW2N" edges="S2TLC TLC2TLW TLW2N"/>
<route id="N2TLE TLE2TLC TLC2TLW TLW2S" edges="N2TLE TLE2TLC TLC2TLW TLW2S"/>
<route id="S2TLC TLC2TLE TLE2E" edges="S2TLC TLC2TLE TLE2E"/>
<route id="N2TLE TLE2S" edges="N2TLE TLE2S"/>
<route id="N2TLC TLC2TLW TLW2S" edges="N2TLC TLC2TLW TLW2S"/>
<route id="E2TLE TLE2S" edges="E2TLE TLE2S"/>
<route id="S2TLC TLC2TLW TLW2S" edges="S2TLC TLC2TLW TLW2S"/>
<route id="S2TLW TLW2TLC TLC2TLE TLE2S" edges="S2TLW TLW2TLC TLC2TLE TLE2S"/>
<route id="S2TLW TLW2N" edges="S2TLW TLW2N"/>
<route id="S2TLW TLW2TLC TLC2TLE TLE2N" edges="S2TLW TLW2TLC TLC2TLE TLE2N"/>
<route id="N2TLW TLW2TLC TLC2TLE TLE2S" edges="N2TLW TLW2TLC TLC2TLE TLE2S"/>
<route id="N2TLC TLC2TLE TLE2N" edges="N2TLC TLC2TLE TLE2N"/>
<route id="S2TLC TLC2TLE TLE2S" edges="S2TLC TLC2TLE TLE2S"/>
<route id="S2TLE TLE2TLC TLC2TLW TLW2W" edges="S2TLE TLE2TLC TLC2TLW TLW2W"/>
<route id="N2TLW TLW2TLC TLC2TLE TLE2E" edges="N2TLW TLW2TLC TLC2TLE TLE2E"/>
<route id="N2TLC TLC2TLW TLW2W" edges="N2TLC TLC2TLW TLW2W"/>
<route id="S2TLC TLC2TLW TLW2W" edges="S2TLC TLC2TLW TLW2W"/>
<route id="E2TLE TLE2TLC TLC2S" edges="E2TLE TLE2TLC TLC2S"/>
<route id="S2TLE TLE2TLC TLC2TLW TLW2S" edges="S2TLE TLE2TLC TLC2TLW TLW2S"/>
<route id="E2TLE TLE2TLC TLC2TLW TLW2W" edges="E2TLE TLE2TLC TLC2TLW TLW2W"/>
<route id="S2TLW TLW2TLC TLC2S" edges="S2TLW TLW2TLC TLC2S"/>
<route id="S2TLC TLC2TLE TLE2N" edges="S2TLC TLC2TLE TLE2N"/>
<route id="N2TLW TLW2TLC TLC2S" edges="N2TLW TLW2TLC TLC2S"/>
<route id="N2TLC TLC2TLE TLE2E" edges="N2TLC TLC2TLE TLE2E"/>
<route id="E2TLE TLE2TLC TLC2N" edges="E2TLE TLE2TLC TLC2N"/>
<route id="S2TLE TLE2TLC TLC2S" edges="S2TLE TLE2TLC TLC2S"/>
<route id="S2TLW TLW2W" edges="S2TLW TLW2W"/>
<route id="N2TLE TLE2TLC TLC2TLW TLW2W" edges="N2TLE TLE2TLC TLC2TLW TLW2W"/>
<route id="N2TLW TLW2S" edges="N2TLW TLW2S"/>
<route id="S2TLC TLC2N" edges="S2TLC TLC2N"/>
<route id="S2TLW TLW2TLC TLC2N" edges="S2TLW TLW2TLC TLC2N"/>
<route id="N2TLE TLE2E" edges="N2TLE TLE2E"/>
<route id="W2TLW TLW2TLC TLC2S" edges="W2TLW TLW2TLC TLC2S"/>
<route id="N2TLE TLE2TLC TLC2S" edges="N2TLE TLE2TLC TLC2S"/>
<route id="S2TLE TLE2TLC TLC2N" edges="S2TLE TLE2TLC TLC2N"/>
<route id="W2TLW TLW2TLC TLC2TLE TLE2N" edges="W2TLW TLW2TLC TLC2TLE TLE2N"/>
<route id="N2TLE TLE2TLC TLC2TLW TLW2N" edges="N2TLE TLE2TLC TLC2TLW TLW2N"/>
<route id="N2TLW TLW2TLC TLC2TLE TLE2N" edges="N2TLW TLW2TLC TLC2TLE TLE2N"/>
<route id="E2TLE TLE2N" edges="E2TLE TLE2N"/>
<route id="S2TLE TLE2N" edges="S2TLE TLE2N"/>
<route id="W2TLW TLW2S" edges="W2TLW TLW2S"/>
<route id="N2TLC TLC2S" edges="N2TLC TLC2S"/>
<route id="N2TLW TLW2W" edges="N2TLW TLW2W"/>
<route id="S2TLW TLW2TLC TLC2TLE TLE2E" edges="S2TLW TLW2TLC TLC2TLE TLE2E"/>
<route id="N2TLW TLW2TLC TLC2N" edges="N2TLW TLW2TLC TLC2N"/>
<route id="W2TLW TLW2TLC TLC2TLE TLE2S" edges="W2TLW TLW2TLC TLC2TLE TLE2S"/>
<route id="E2TLE TLE2TLC TLC2TLW TLW2N" edges="E2TLE TLE2TLC TLC2TLW TLW2N"/>
<route id="N2TLC TLC2TLW TLW2N" edges="N2TLC TLC2TLW TLW2N"/>
<route id="W2TLW TLW2N" edges="W2TLW TLW2N"/>
<route id="N2TLE TLE2TLC TLC2N" edges="N2TLE TLE2TLC TLC2N"/>
<route id="S2TLE TLE2E" edges="S2TLE TLE2E"/>
<route id="W2TLW TLW2TLC TLC2TLE TLE2E" edges="W2TLW TLW2TLC TLC2TLE TLE2E"/>
<route id="N2TLC TLC2TLE TLE2S" edges="N2TLC TLC2TLE TLE2S"/>
<route id="S2TLE TLE2TLC TLC2TLW TLW2N" edges="S2TLE TLE2TLC TLC2TLW TLW2N"/>
<route id="E2TLE TLE2TLC TLC2TLW TLW2S" edges="E2TLE TLE2TLC TLC2TLW TLW2S"/>
    <vehicle id="vehicle_0" type="standard_car" route='E2TLE TLE2TLC TLC2TLW TLW2W' depart="25.0" departLane="random" departSpeed="10"/>
    <vehicle id="vehicle_1" type="standard_car" route='N2TLC TLC2TLW TLW2W' depart="29.0" departLane="random" departSpeed="10"/>
    <vehicle id="vehicle_2" type="standard_car" route='N2TLC TLC2S' depart="39.0" departLane="random" departSpeed="10"/>
    <vehicle id="vehicle_3" type="standard_car" route='N2TLW TLW2S' depart="52.0" departLane="random" departSpeed="10"/>
    <vehicle id="vehicle_4" type="standard_car" route='S2TLW TLW2N' depart="66.0" departLane="random" departSpeed="10"/>
    <vehicle id="vehicle_5" type="standard_car" route='N2TLW TLW2S' depart="69.0" departLane="random" departSpeed="10"/>
    <vehicle id="vehicle_6" type="standard_car" route='N2TLW TLW2S' depart="74.0" departLane="random" departSpeed="10"/>
    <vehicle id="vehicle_7" type="standard_car" route='S2TLW TLW2W' depart="83.0" departLane="random" departSpeed="10"/>
    <vehicle id="vehicle_8" type="standard_car" route='E2TLE TLE2S' depart="85.0" departLane="random" departSpeed="10"/>
    <vehicle id="vehicle_9" type="standard_car" route='N2TLW TLW2S' depart="91.0" departLane="random" departSpeed="10"/>
    <vehicle id="vehicle_10" type="standard_car" route='S2TLE TLE2TLC TLC2TLW TLW2W' depart="91.0" departLane="random" departSpeed="10"/>
    <vehicle id="vehicle_11" type="standard_car" route='S2TLC TLC2TLW TLW2W' depart="95.0" departLane="random" departSpeed="10"/>
    <vehicle id="vehicle_12" type="standard_car" route='S2TLW TLW2N' depart="99.0" departLane="random" departSpeed="10"/>
    <vehicle id="vehicle_13" type="standard_car" route='N2TLE TLE2S' depart="101.0" departLane="random" departSpeed="10"/>
    <vehicle id="vehicle_14" type="standard_car" route='S2TLC TLC2N' depart="118.0" departLane="random" departSpeed="10"/>
    <vehicle id="vehicle_15" type="standard_car" route='N2TLC TLC2S' depart="119.0" departLane="random" departSpeed="10"/>
    <vehicle id="vehicle_16" type="standard_car" route='N2TLE TLE2S' depart="121.0" departLane="random" departSpeed="10"/>
    <vehicle id="vehicle_17" type="standard_car" route='S2TLE TLE2N' depart="123.0" departLane="random" departSpeed="10"/>
    <vehicle id="vehicle_18" type="standard_car" route='S2TLE TLE2N' depart="127.0" departLane="random" departSpeed="10"/>
    <vehicle id="vehicle_19" type="standard_car" route='S2TLW TLW2N' depart="134.0" departLane="random" departSpeed="10"/>
    <vehicle id="vehicle_20" type="standard_car" route='S2TLW TLW2N' depart="142.0" departLane="random" departSpeed="10"/>
    <vehicle id="vehicle_21" type="standard_car" route='N2TLE TLE2S' depart="146.0" departLane="random" departSpeed="10"/>
    <vehicle id="vehicle_22" type="standard_car" route='S2TLC TLC2TLE TLE2N' depart="146.0" departLane="random" departSpeed="10"/>
    <vehicle id="vehicle_23" type="standard_car" route='N2TLC TLC2S' depart="149.0" departLane="random" departSpeed="10"/>
    <vehicle id="vehicle_24" type="standard_car" route='E2TLE TLE2TLC TLC2TLW TLW2S' depart="151.0" departLane="random" departSpeed="10"/>
    <vehicle id="vehicle_25" type="standard_car" route='S2TLE TLE2E' depart="156.0" departLane="random" departSpeed="10"/>
    <vehicle id="vehicle_26" type="standard_car" route='S2TLW TLW2N' depart="156.0" departLane="random" departSpeed="10"/>
    <vehicle id="vehicle_27" type="standard_car" route='N2TLW TLW2S' depart="157.0" departLane="random" departSpeed="10"/>
    <vehicle id="vehicle_28" type="standard_car" route='N2TLW TLW2S' depart="166.0" departLane="random" departSpeed="10"/>
    <vehicle id="vehicle_29" type="standard_car" route='N2TLC TLC2S' depart="168.0" departLane="random" departSpeed="10"/>
    <vehicle id="vehicle_30" type="standard_car" route='S2TLW TLW2N' depart="174.0" departLane="random" departSpeed="10"/>
    <vehicle id="vehicle_31" type="standard_car" route='N2TLE TLE2S' depart="175.0" departLane="random" departSpeed="10"/>
    <vehicle id="vehicle_32" type="standard_car" route='S2TLC TLC2N' depart="178.0" departLane="random" departSpeed="10"/>
    <vehicle id="vehicle_33" type="standard_car" route='S2TLW TLW2N' depart="180.0" departLane="random" departSpeed="10"/>
    <vehicle id="vehicle_34" type="standard_car" route='E2TLE TLE2TLC TLC2TLW TLW2W' depart="181.0" departLane="random" departSpeed="10"/>
    <vehicle id="vehicle_35" type="standard_car" route='S2TLC TLC2TLW TLW2S' depart="182.0" departLane="random" departSpeed="10"/>
    <vehicle id="vehicle_36" type="standard_car" route='W2TLW TLW2TLC TLC2TLE TLE2E' depart="185.0" departLane="random" departSpeed="10"/>
    <vehicle id="vehicle_37" type="standard_car" route='N2TLW TLW2S' depart="185.0" departLane="random" departSpeed="10"/>
    <vehicle id="vehicle_38" type="standard_car" route='S2TLE TLE2N' depart="186.0" departLane="random" departSpeed="10"/>
    <vehicle id="vehicle_39" type="standard_car" route='E2TLE TLE2TLC TLC2TLW TLW2W' depart="187.0" departLane="random" departSpeed="10"/>
    <vehicle id="vehicle_40" type="standard_car" route='N2TLE TLE2S' depart="190.0" departLane="random" departSpeed="10"/>
    <vehicle id="vehicle_41" type="standard_car" route='S2TLE TLE2N' depart="192.0" departLane="random" departSpeed="10"/>
    <vehicle id="vehicle_42" type="standard_car" route='N2TLC TLC2TLE TLE2E' depart="195.0" departLane="random" departSpeed="10"/>
    <vehicle id="vehicle_43" type="standard_car" route='S2TLE TLE2N' depart="195.0" departLane="random" departSpeed="10"/>
    <vehicle id="vehicle_44" type="standard_car" route='E2TLE TLE2TLC TLC2TLW TLW2N' depart="197.0" departLane="random" departSpeed="10"/>
    <vehicle id="vehicle_45" type="standard_car" route='W2TLW TLW2N' depart="198.0" departLane="random" departSpeed="10"/>
    <vehicle id="vehicle_46" type="standard_car" route='N2TLC TLC2S' depart="200.0" departLane="random" departSpeed="10"/>
    <vehicle id="vehicle_47" type="standard_car" route='S2TLW TLW2TLC TLC2TLE TLE2E' depart="204.0" departLane="random" departSpeed="10"/>
    <vehicle id="vehicle_48" type="standard_car" route='W2TLW TLW2S' depart="206.0" departLane="random" departSpeed="10"/>
    <vehicle id="vehicle_49" type="standard_car" route='N2TLW TLW2TLC TLC2TLE TLE2E' depart="206.0" departLane="random" departSpeed="10"/>
    <vehicle id="vehicle_50" type="standard_car" route='N2TLW TLW2S' depart="207.0" departLane="random" departSpeed="10"/>
    <vehicle id="vehicle_51" type="standard_car" route='N2TLE TLE2E' depart="210.0" departLane="random" departSpeed="10"/>
    <vehicle id="vehicle_52" type="standard_car" route='N2TLC TLC2S' depart="210.0" departLane="random" departSpeed="10"/>
    <vehicle id="vehicle_53" type="standard_car" route='E2TLE TLE2TLC TLC2TLW TLW2W' depart="212.0" departLane="random" departSpeed="10"/>
    <vehicle id="vehicle_54" type="standard_car" route='S2TLE TLE2N' depart="212.0" departLane="random" departSpeed="10"/>
    <vehicle id="vehicle_55" type="standard_car" route='W2TLW TLW2N' depart="213.0" departLane="random" departSpeed="10"/>
    <vehicle id="vehicle_56" type="standard_car" route='N2TLE TLE2S' depart="214.0" departLane="random" departSpeed="10"/>
    <vehicle id="vehicle_57" type="standard_car" route='E2TLE TLE2N' depart="217.0" departLane="random" departSpeed="10"/>
    <vehicle id="vehicle_58" type="standard_car" route='E2TLE TLE2TLC TLC2TLW TLW2W' depart="218.0" departLane="random" departSpeed="10"/>
    <vehicle id="vehicle_59" type="standard_car" route='N2TLC TLC2TLE TLE2E' depart="218.0" departLane="random" departSpeed="10"/>
    <vehicle id="vehicle_60" type="standard_car" route='E2TLE TLE2TLC TLC2TLW TLW2W' depart="219.0" departLane="random" departSpeed="10"/>
    <vehicle id="vehicle_61" type="standard_car" route='S2TLW TLW2N' depart="221.0" departLane="random" departSpeed="10"/>
    <vehicle id="vehicle_62" type="standard_car" route='S2TLW TLW2N' depart="222.0" departLane="random" departSpeed="10"/>
    <vehicle id="vehicle_63" type="standard_car" route='N2TLW TLW2S' depart="223.0" departLane="random" departSpeed="10"/>
    <vehicle id="vehicle_64" type="standard_car" route='E2TLE TLE2TLC TLC2TLW TLW2W' depart="224.0" departLane="random" departSpeed="10"/>
    <vehicle id="vehicle_65" type="standard_car" route='N2TLE TLE2S' depart="226.0" departLane="random" departSpeed="10"/>
    <vehicle id="vehicle_66" type="standard_car" route='N2TLE TLE2TLC TLC2TLW TLW2S' depart="227.0" departLane="random" departSpeed="10"/>
    <vehicle id="vehicle_67" type="standard_car" route='S2TLE TLE2N' depart="232.0" departLane="random" departSpeed="10"/>
    <vehicle id="vehicle_68" type="standard_car" route='N2TLW TLW2S' depart="234.0" departLane="random" departSpeed="10"/>
    <vehicle id="vehicle_69" type="standard_car" route='W2TLW TLW2TLC TLC2S' depart="235.0" departLane="random" departSpeed="10"/>
    <vehicle id="vehicle_70" type="standard_car" route='N2TLE TLE2TLC TLC2S' depart="235.0" departLane="random" departSpeed="10"/>
    <vehicle id="vehicle_71" type="standard_car" route='S2TLC TLC2N' depart="238.0" departLane="random" departSpeed="10"/>
    <vehicle id="vehicle_72" type="standard_car" route='N2TLW TLW2TLC TLC2N' depart="239.0" departLane="random" departSpeed="10"/>
    <vehicle id="vehicle_73" type="standard_car" route='N2TLE TLE2S' depart="243.0" departLane="random" departSpeed="10"/>
    <vehicle id="vehicle_74" type="standard_car" route='W2TLW TLW2S' depart="243.0" departLane="random" departSpeed="10"/>
    <vehicle id="vehicle_75" type="standard_car" route='N2TLE TLE2TLC TLC2TLW TLW2S' depart="246.0" departLane="random" departSpeed="10"/>
    <vehicle id="vehicle_76" type="standard_car" route='E2TLE TLE2TLC TLC2TLW TLW2N' depart="247.0" departLane="random" departSpeed="10"/>
    <vehicle id="vehicle_77" type="standard_car" route='N2TLW TLW2W' depart="250.0" departLane="random" departSpeed="10"/>
    <vehicle id="vehicle_78" type="standard_car" route='N2TLW TLW2W' depart="253.0" departLane="random" departSpeed="10"/>
    <vehicle id="vehicle_79" type="standard_car" route='W2TLW TLW2S' depart="253.0" departLane="random" departSpeed="10"/>
    <vehicle id="vehicle_80" type="standard_car" route='E2TLE TLE2S' depart="255.0" departLane="random" departSpeed="10"/>
    <vehicle id="vehicle_81" type="standard_car" route='N2TLW TLW2S' depart="257.0" departLane="random" departSpeed="10"/>
    <vehicle id="vehicle_82" type="standard_car" route='S2TLE TLE2N' depart="262.0" departLane="random" departSpeed="10"/>
    <vehicle id="vehicle_83" type="standard_car" route='E2TLE TLE2TLC TLC2S' depart="263.0" departLane="random" departSpeed="10"/>
    <vehicle id="vehicle_84" type="standard_car" route='W2TLW TLW2S' depart="265.0" departLane="random" departSpeed="10"/>
    <vehicle id="vehicle_85" type="standard_car" route='S2TLC TLC2N' depart="269.0" departLane="random" departSpeed="10"/>
    <vehicle id="vehicle_86" type="standard_car" route='N2TLE TLE2S' depart="269.0" departLane="random" departSpeed="10"/>
    <vehicle id="vehicle_87" type="standard_car" route='S2TLC TLC2TLW TLW2W' depart="270.0" departLane="random" departSpeed="10"/>
    <vehicle id="vehicle_88" type="standard_car" route='S2TLC TLC2N' depart="272.0" departLane="random" departSpeed="10"/>
    <vehicle id="vehicle_89" type="standard_car" route='S2TLC TLC2N' depart="273.0" departLane="random" departSpeed="10"/>
    <vehicle id="vehicle_90" type="standard_car" route='S2TLC TLC2N' depart="276.0" departLane="random" departSpeed="10"/>
    <vehicle id="vehicle_91" type="standard_car" route='S2TLW TLW2N' depart="276.0" departLane="random" departSpeed="10"/>
    <vehicle id="vehicle_92" type="standard_car" route='N2TLC TLC2S' depart="277.0" departLane="random" departSpeed="10"/>
    <vehicle id="vehicle_93" type="standard_car" route='N2TLC TLC2S' depart="277.0" departLane="random" departSpeed="10"/>
    <vehicle id="vehicle_94" type="standard_car" route='S2TLW TLW2W' depart="278.0" departLane="random" departSpeed="10"/>
    <vehicle id="vehicle_95" type="standard_car" route='N2TLC TLC2S' depart="279.0" departLane="random" departSpeed="10"/>
    <vehicle id="vehicle_96" type="standard_car" route='S2TLC TLC2N' depart="280.0" departLane="random" departSpeed="10"/>
    <vehicle id="vehicle_97" type="standard_car" route='N2TLE TLE2S' depart="280.0" departLane="random" departSpeed="10"/>
    <vehicle id="vehicle_98" type="standard_car" route='N2TLE TLE2S' depart="285.0" departLane="random" departSpeed="10"/>
    <vehicle id="vehicle_99" type="standard_car" route='N2TLW TLW2S' depart="285.0" departLane="random" departSpeed="10"/>
    <vehicle id="vehicle_100" type="standard_car" route='S2TLE TLE2N' depart="287.0" departLane="random" departSpeed="10"/>
    <vehicle id="vehicle_101" type="standard_car" route='N2TLW TLW2S' depart="287.0" departLane="random" departSpeed="10"/>
    <vehicle id="vehicle_102" type="standard_car" route='N2TLE TLE2E' depart="288.0" departLane="random" departSpeed="10"/>
    <vehicle id="vehicle_103" type="standard_car" route='S2TLW TLW2N' depart="290.0" departLane="random" departSpeed="10"/>
    <vehicle id="vehicle_104" type="standard_car" route='N2TLE TLE2S' depart="294.0" departLane="random" departSpeed="10"/>
    <vehicle id="vehicle_105" type="standard_car" route='N2TLW TLW2S' depart="295.0" departLane="random" departSpeed="10"/>
    <vehicle id="vehicle_106" type="standard_car" route='S2TLW TLW2N' depart="297.0" departLane="random" departSpeed="10"/>
    <vehicle id="vehicle_107" type="standard_car" route='W2TLW TLW2TLC TLC2TLE TLE2E' depart="298.0" departLane="random" departSpeed="10"/>
    <vehicle id="vehicle_108" type="standard_car" route='E2TLE TLE2TLC TLC2S' depart="300.0" departLane="random" departSpeed="10"/>
    <vehicle id="vehicle_109" type="standard_car" route='E2TLE TLE2TLC TLC2TLW TLW2W' depart="300.0" departLane="random" departSpeed="10"/>
    <vehicle id="vehicle_110" type="standard_car" route='N2TLW TLW2S' depart="300.0" departLane="random" departSpeed="10"/>
    <vehicle id="vehicle_111" type="standard_car" route='N2TLE TLE2S' depart="303.0" departLane="random" departSpeed="10"/>
    <vehicle id="vehicle_112" type="standard_car" route='W2TLW TLW2TLC TLC2TLE TLE2E' depart="304.0" departLane="random" departSpeed="10"/>
    <vehicle id="vehicle_113" type="standard_car" route='N2TLC TLC2S' depart="307.0" departLane="random" departSpeed="10"/>
    <vehicle id="vehicle_114" type="standard_car" route='S2TLC TLC2N' depart="309.0" departLane="random" departSpeed="10"/>
    <vehicle id="vehicle_115" type="standard_car" route='S2TLW TLW2TLC TLC2TLE TLE2E' depart="314.0" departLane="random" departSpeed="10"/>
    <vehicle id="vehicle_116" type="standard_car" route='E2TLE TLE2TLC TLC2S' depart="315.0" departLane="random" departSpeed="10"/>
    <vehicle id="vehicle_117" type="standard_car" route='S2TLE TLE2TLC TLC2S' depart="315.0" departLane="random" departSpeed="10"/>
    <vehicle id="vehicle_118" type="standard_car" route='S2TLW TLW2N' depart="317.0" departLane="random" departSpeed="10"/>
    <vehicle id="vehicle_119" type="standard_car" route='S2TLC TLC2TLW TLW2S' depart="317.0" departLane="random" departSpeed="10"/>
    <vehicle id="vehicle_120" type="standard_car" route='E2TLE TLE2TLC TLC2TLW TLW2W' depart="319.0" departLane="random" departSpeed="10"/>
    <vehicle id="vehicle_121" type="standard_car" route='S2TLE TLE2N' depart="319.0" departLane="random" departSpeed="10"/>
    <vehicle id="vehicle_122" type="standard_car" route='S2TLC TLC2TLE TLE2N' depart="319.0" departLane="random" departSpeed="10"/>
    <vehicle id="vehicle_123" type="standard_car" route='W2TLW TLW2TLC TLC2S' depart="320.0" departLane="random" departSpeed="10"/>
    <vehicle id="vehicle_124" type="standard_car" route='S2TLE TLE2N' depart="321.0" departLane="random" departSpeed="10"/>
    <vehicle id="vehicle_125" type="standard_car" route='N2TLC TLC2S' depart="326.0" departLane="random" departSpeed="10"/>
    <vehicle id="vehicle_126" type="standard_car" route='N2TLC TLC2TLW TLW2W' depart="326.0" departLane="random" departSpeed="10"/>
    <vehicle id="vehicle_127" type="standard_car" route='E2TLE TLE2TLC TLC2TLW TLW2W' depart="328.0" departLane="random" departSpeed="10"/>
    <vehicle id="vehicle_128" type="standard_car" route='S2TLW TLW2N' depart="329.0" departLane="random" departSpeed="10"/>
    <vehicle id="vehicle_129" type="standard_car" route='W2TLW TLW2TLC TLC2N' depart="329.0" departLane="random" departSpeed="10"/>
    <vehicle id="vehicle_130" type="standard_car" route='S2TLE TLE2N' depart="330.0" departLane="random" departSpeed="10"/>
    <vehicle id="vehicle_131" type="standard_car" route='N2TLC TLC2S' depart="333.0" departLane="random" departSpeed="10"/>
    <vehicle id="vehicle_132" type="standard_car" route='S2TLW TLW2N' depart="334.0" departLane="random" departSpeed="10"/>
    <vehicle id="vehicle_133" type="standard_car" route='N2TLW TLW2S' depart="339.0" departLane="random" departSpeed="10"/>
    <vehicle id="vehicle_134" type="standard_car" route='N2TLE TLE2E' depart="341.0" departLane="random" departSpeed="10"/>
    <vehicle id="vehicle_135" type="standard_car" route='N2TLW TLW2S' depart="341.0" departLane="random" departSpeed="10"/>
    <vehicle id="vehicle_136" type="standard_car" route='N2TLE TLE2S' depart="343.0" departLane="random" departSpeed="10"/>
    <vehicle id="vehicle_137" type="standard_car" route='S2TLE TLE2E' depart="343.0" departLane="random" departSpeed="10"/>
    <vehicle id="vehicle_138" type="standard_car" route='N2TLC TLC2S' depart="345.0" departLane="random" departSpeed="10"/>
    <vehicle id="vehicle_139" type="standard_car" route='N2TLE TLE2TLC TLC2TLW TLW2W' depart="345.0" departLane="random" departSpeed="10"/>
    <vehicle id="vehicle_140" type="standard_car" route='S2TLW TLW2TLC TLC2N' depart="346.0" departLane="random" departSpeed="10"/>
    <vehicle id="vehicle_141" type="standard_car" route='N2TLE TLE2S' depart="354.0" departLane="random" departSpeed="10"/>
    <vehicle id="vehicle_142" type="standard_car" route='S2TLC TLC2N' depart="354.0" departLane="random" departSpeed="10"/>
    <vehicle id="vehicle_143" type="standard_car" route='W2TLW TLW2S' depart="354.0" departLane="random" departSpeed="10"/>
    <vehicle id="vehicle_144" type="standard_car" route='S2TLE TLE2N' depart="355.0" departLane="random" departSpeed="10"/>
    <vehicle id="vehicle_145" type="standard_car" route='N2TLE TLE2S' depart="355.0" departLane="random" departSpeed="10"/>
    <vehicle id="vehicle_146" type="standard_car" route='N2TLC TLC2S' depart="355.0" departLane="random" departSpeed="10"/>
    <vehicle id="vehicle_147" type="standard_car" route='W2TLW TLW2TLC TLC2TLE TLE2E' depart="357.0" departLane="random" departSpeed="10"/>
    <vehicle id="vehicle_148" type="standard_car" route='N2TLC TLC2S' depart="359.0" departLane="random" departSpeed="10"/>
    <vehicle id="vehicle_149" type="standard_car" route='W2TLW TLW2S' depart="360.0" departLane="random" departSpeed="10"/>
    <vehicle id="vehicle_150" type="standard_car" route='N2TLE TLE2S' depart="361.0" departLane="random" departSpeed="10"/>
    <vehicle id="vehicle_151" type="standard_car" route='S2TLC TLC2N' depart="363.0" departLane="random" departSpeed="10"/>
    <vehicle id="vehicle_152" type="standard_car" route='N2TLC TLC2S' depart="364.0" departLane="random" departSpeed="10"/>
    <vehicle id="vehicle_153" type="standard_car" route='S2TLW TLW2W' depart="367.0" departLane="random" departSpeed="10"/>
    <vehicle id="vehicle_154" type="standard_car" route='S2TLE TLE2N' depart="370.0" departLane="random" departSpeed="10"/>
    <vehicle id="vehicle_155" type="standard_car" route='N2TLW TLW2S' depart="370.0" departLane="random" departSpeed="10"/>
    <vehicle id="vehicle_156" type="standard_car" route='N2TLW TLW2S' depart="373.0" departLane="random" departSpeed="10"/>
    <vehicle id="vehicle_157" type="standard_car" route='S2TLW TLW2N' depart="379.0" departLane="random" departSpeed="10"/>
    <vehicle id="vehicle_158" type="standard_car" route='S2TLE TLE2N' depart="379.0" departLane="random" departSpeed="10"/>
    <vehicle id="vehicle_159" type="standard_car" route='S2TLE TLE2N' depart="380.0" departLane="random" departSpeed="10"/>
    <vehicle id="vehicle_160" type="standard_car" route='E2TLE TLE2S' depart="380.0" departLane="random" departSpeed="10"/>
    <vehicle id="vehicle_161" type="standard_car" route='S2TLW TLW2TLC TLC2TLE TLE2E' depart="381.0" departLane="random" departSpeed="10"/>
    <vehicle id="vehicle_162" type="standard_car" route='E2TLE TLE2TLC TLC2TLW TLW2N' depart="384.0" departLane="random" departSpeed="10"/>
    <vehicle id="vehicle_163" type="standard_car" route='N2TLW TLW2S' depart="386.0" departLane="random" departSpeed="10"/>
    <vehicle id="vehicle_164" type="standard_car" route='E2TLE TLE2N' depart="387.0" departLane="random" departSpeed="10"/>
    <vehicle id="vehicle_165" type="standard_car" route='N2TLW TLW2S' depart="389.0" departLane="random" departSpeed="10"/>
    <vehicle id="vehicle_166" type="standard_car" route='W2TLW TLW2S' depart="395.0" departLane="random" departSpeed="10"/>
    <vehicle id="vehicle_167" type="standard_car" route='N2TLW TLW2S' depart="395.0" departLane="random" departSpeed="10"/>
    <vehicle id="vehicle_168" type="standard_car" route='E2TLE TLE2N' depart="396.0" departLane="random" departSpeed="10"/>
    <vehicle id="vehicle_169" type="standard_car" route='N2TLW TLW2S' depart="396.0" departLane="random" departSpeed="10"/>
    <vehicle id="vehicle_170" type="standard_car" route='S2TLE TLE2N' depart="402.0" departLane="random" departSpeed="10"/>
    <vehicle id="vehicle_171" type="standard_car" route='W2TLW TLW2N' depart="403.0" departLane="random" departSpeed="10"/>
    <vehicle id="vehicle_172" type="standard_car" route='S2TLE TLE2N' depart="404.0" departLane="random" departSpeed="10"/>
    <vehicle id="vehicle_173" type="standard_car" route='N2TLE TLE2S' depart="404.0" departLane="random" departSpeed="10"/>
    <vehicle id="vehicle_174" type="standard_car" route='N2TLC TLC2TLW TLW2W' depart="404.0" departLane="random" departSpeed="10"/>
    <vehicle id="vehicle_175" type="standard_car" route='E2TLE TLE2TLC TLC2TLW TLW2W' depart="404.0" departLane="random" departSpeed="10"/>
    <vehicle id="vehicle_176" type="standard_car" route='S2TLE TLE2N' depart="404.0" departLane="random" departSpeed="10"/>
    <vehicle id="vehicle_177" type="standard_car" route='S2TLE TLE2TLC TLC2TLW TLW2S' depart="411.0" departLane="random" departSpeed="10"/>
    <vehicle id="vehicle_178" type="standard_car" route='E2TLE TLE2S' depart="411.0" departLane="random" departSpeed="10"/>
    <vehicle id="vehicle_179" type="standard_car" route='E2TLE TLE2TLC TLC2TLW TLW2W' depart="411.0" departLane="random" departSpeed="10"/>
    <vehicle id="vehicle_180" type="standard_car" route='S2TLE TLE2E' depart="412.0" departLane="random" departSpeed="10"/>
    <vehicle id="vehicle_181" type="standard_car" route='N2TLC TLC2S' depart="415.0" departLane="random" departSpeed="10"/>
    <vehicle id="vehicle_182" type="standard_car" route='E2TLE TLE2TLC TLC2TLW TLW2W' depart="415.0" departLane="random" departSpeed="10"/>
    <vehicle id="vehicle_183" type="standard_car" route='E2TLE TLE2TLC TLC2TLW TLW2W' depart="417.0" departLane="random" departSpeed="10"/>
    <vehicle id="vehicle_184" type="standard_car" route='N2TLW TLW2S' depart="418.0" departLane="random" departSpeed="10"/>
    <vehicle id="vehicle_185" type="standard_car" route='S2TLC TLC2TLW TLW2W' depart="419.0" departLane="random" departSpeed="10"/>
    <vehicle id="vehicle_186" type="standard_car" route='N2TLW TLW2S' depart="420.0" departLane="random" departSpeed="10"/>
    <vehicle id="vehicle_187" type="standard_car" route='N2TLC TLC2S' depart="422.0" departLane="random" departSpeed="10"/>
    <vehicle id="vehicle_188" type="standard_car" route='S2TLW TLW2N' depart="422.0" departLane="random" departSpeed="10"/>
    <vehicle id="vehicle_189" type="standard_car" route='N2TLW TLW2S' depart="423.0" departLane="random" departSpeed="10"/>
    <vehicle id="vehicle_190" type="standard_car" route='S2TLC TLC2TLW TLW2W' depart="425.0" departLane="random" departSpeed="10"/>
    <vehicle id="vehicle_191" type="standard_car" route='S2TLW TLW2N' depart="425.0" departLane="random" departSpeed="10"/>
    <vehicle id="vehicle_192" type="standard_car" route='E2TLE TLE2S' depart="426.0" departLane="random" departSpeed="10"/>
    <vehicle id="vehicle_193" type="standard_car" route='S2TLW TLW2TLC TLC2N' depart="427.0" departLane="random" departSpeed="10"/>
    <vehicle id="vehicle_194" type="standard_car" route='S2TLW TLW2N' depart="432.0" departLane="random" departSpeed="10"/>
    <vehicle id="vehicle_195" type="standard_car" route='E2TLE TLE2N' depart="433.0" departLane="random" departSpeed="10"/>
    <vehicle id="vehicle_196" type="standard_car" route='S2TLC TLC2TLW TLW2W' depart="433.0" departLane="random" departSpeed="10"/>
    <vehicle id="vehicle_197" type="standard_car" route='W2TLW TLW2TLC TLC2TLE TLE2S' depart="433.0" departLane="random" departSpeed="10"/>
    <vehicle id="vehicle_198" type="standard_car" route='N2TLC TLC2TLE TLE2N' depart="434.0" departLane="random" departSpeed="10"/>
    <vehicle id="vehicle_199" type="standard_car" route='S2TLW TLW2TLC TLC2N' depart="436.0" departLane="random" departSpeed="10"/>
    <vehicle id="vehicle_200" type="standard_car" route='N2TLE TLE2S' depart="436.0" departLane="random" departSpeed="10"/>
    <vehicle id="vehicle_201" type="standard_car" route='S2TLW TLW2N' depart="437.0" departLane="random" departSpeed="10"/>
    <vehicle id="vehicle_202" type="standard_car" route='S2TLW TLW2N' depart="437.0" departLane="random" departSpeed="10"/>
    <vehicle id="vehicle_203" type="standard_car" route='S2TLW TLW2N' depart="438.0" departLane="random" departSpeed="10"/>
    <vehicle id="vehicle_204" type="standard_car" route='W2TLW TLW2TLC TLC2TLE TLE2E' depart="439.0" departLane="random" departSpeed="10"/>
    <vehicle id="vehicle_205" type="standard_car" route='S2TLW TLW2N' depart="443.0" departLane="random" departSpeed="10"/>
    <vehicle id="vehicle_206" type="standard_car" route='E2TLE TLE2TLC TLC2S' depart="444.0" departLane="random" departSpeed="10"/>